FoamFile
{
    version     2.0;
    format      ascii;
    class       dictionary;
    object      controlDict;
}

application     pimpleFoam;

startFrom       startTime;

startTime       0;

stopAt          endTime;

endTime         0.1;

deltaT          0.0001;

writeControl    adjustableRunTime;

writeInterval   0.001;

purgeWrite      0;

writeFormat     ascii;

writePrecision  6;

writeCompression off;

timeFormat      general;

timePrecision   6;

libs ("/usr/lib/openfoam/openfoam2306/platforms/linuxARM64GccDPInt32Opt/lib/libpreciceAdapterFunctionObject.so");

functions
{
    preCICE_Adapter
    {
        type preciceAdapterFunctionObject;
        errors strict; // Available since OpenFOAM v2012
    }
}
