/*--------------------------------*- C++ -*----------------------------------*\
| =========                 |                                                 |
| \\      /  F ield         | OpenFOAM: The Open Source CFD Toolbox           |
|  \\    /   O peration     | Version:  2306                                  |
|   \\  /    A nd           | Website:  www.openfoam.com                      |
|    \\/     M anipulation  |                                                 |
\*---------------------------------------------------------------------------*/
FoamFile
{
    version     2.0;
    format      ascii;
    arch        "LSB;label=32;scalar=64";
    class       extendedFeatureEdgeMesh;
    location    "constant/extendedFeatureEdgeMesh";
    object      NASAsc2-0410.extendedFeatureEdgeMesh;
}
// * * * * * * * * * * * * * * * * * * * * * * * * * * * * * * * * * * * * * //

// points

1114
(
(1.0000079 0.049621526 2.95)
(0.97970361 0.053222045 2.95)
(0.98393983 0.052020185 2.95)
(0.98679072 0.052013867 2.95)
(0.98571956 0.051797759 2.95)
(0.98727548 0.051590234 2.95)
(0.97151548 0.054557733 2.95)
(0.96852773 0.053684462 2.95)
(0.97047353 0.053504732 2.95)
(0.26300538 0.096125871 2.95)
(0.24346834 0.095409691 2.95)
(0.24820025 0.0017464757 2.95)
(0.23212554 0.002350565 2.95)
(0.74066263 0.082398593 2.95)
(0.70366019 0.028180253 2.95)
(0.7608012 0.080532275 2.95)
(0.77154887 0.039210878 2.95)
(0.77913535 0.078650475 2.95)
(0.7795127 0.040504828 2.95)
(0.79281217 0.042538259 2.95)
(0.80209726 0.076284468 2.95)
(0.2071739 0.0035176799 2.95)
(0.20846182 0.093875378 2.95)
(0.19846146 0.0039428659 2.95)
(0.18832035 0.092713304 2.95)
(0.15705088 0.090658307 2.95)
(0.13908774 0.089254074 2.95)
(0.13387299 0.0086465217 2.95)
(0.55899155 0.094745204 2.95)
(0.5653671 0.0084807873 2.95)
(0.57367498 0.009366978 2.95)
(0.96611607 0.053886872 2.95)
(0.9644708 0.055643819 2.95)
(0.96363044 0.054075602 2.95)
(0.39048395 0.097915292 2.95)
(0.37997502 0.097940966 2.95)
(0.37990081 0.00010225922 2.95)
(0.44048926 0.001163654 2.95)
(0.4484061 0.09758874 2.95)
(0.43025282 0.00093008205 2.95)
(0.43055594 0.097814724 2.95)
(0.40929401 0.00046400726 2.95)
(0.39896742 0.00034062564 2.95)
(0.23429413 0.095079377 2.95)
(0.22874297 0.094853207 2.95)
(0.21418202 0.094162725 2.95)
(0.0084974114 0.036115151 2.95)
(0.008739328 0.035921875 2.95)
(0.020316834 0.069725424 2.95)
(0.58058858 0.093823329 2.95)
(0.57991147 0.010081451 2.95)
(0.58993417 0.093331113 2.95)
(0.59995204 0.012534779 2.95)
(0.60877615 0.092346787 2.95)
(0.61726725 0.014820769 2.95)
(0.62918735 0.091079324 2.95)
(0.49909398 0.0035484433 2.95)
(0.50966322 0.09643244 2.95)
(0.48952723 0.0030502304 2.95)
(0.47795558 0.097145289 2.95)
(0.47784001 0.002558846 2.95)
(0.46989784 0.097321987 2.95)
(0.46099237 0.0018362701 2.95)
(0.45437494 0.0016110465 2.95)
(0.52176553 0.0048694424 2.95)
(0.52549434 0.095918268 2.95)
(0.51555538 0.0044514909 2.95)
(0.50961864 0.0041004159 2.95)
(0.98908246 0.051334143 2.95)
(0.99106008 0.051037531 2.95)
(0.99517667 0.050522666 2.95)
(0.53624868 0.0059174262 2.95)
(0.54283899 0.0064159073 2.95)
(0.54974806 0.095134743 2.95)
(0.54984552 0.0070047081 2.95)
(0.55744147 0.0076972134 2.95)
(0.91979611 0.055423338 2.95)
(0.92790645 0.060979087 2.95)
(0.91550654 0.055349369 2.95)
(0.9044624 0.064075187 2.95)
(0.97252744 0.053299081 2.95)
(0.97598559 0.052926563 2.95)
(0.98075205 0.052389208 2.95)
(0.021043109 0.069992237 2.95)
(0.14774738 0.0074325949 2.95)
(0.15391347 0.0069208629 2.95)
(0.16243795 0.09105093 2.95)
(0.16041744 0.0064351149 2.95)
(0.18045837 0.092259228 2.95)
(0.18527935 0.004750289 2.95)
(0.19215915 0.0043028258 2.95)
(0.72232169 0.084101677 2.95)
(0.69138622 0.08666724 2.95)
(0.66082507 0.02121787 2.95)
(0.65937138 0.089102417 2.95)
(0.65131873 0.019763138 2.95)
(0.6506207 0.089738548 2.95)
(0.63800478 0.017748352 2.95)
(0.62244993 0.015531823 2.95)
(0.86161411 0.051649582 2.95)
(0.85555679 0.070217073 2.95)
(0.85426241 0.050844647 2.95)
(0.84897947 0.071009167 2.95)
(0.92398781 0.05546014 2.95)
(0.92811733 0.055461809 2.95)
(0.93356395 0.060193628 2.95)
(0.93222523 0.055429254 2.95)
(0.94692457 0.055037212 2.95)
(0.95095521 0.054852583 2.95)
(0.94832683 0.058089525 2.95)
(0.95484251 0.05464286 2.95)
(0.96015036 0.054314796 2.95)
(0.99562114 0.050316598 2.95)
(0.99568033 0.050307058 2.95)
(0.99573886 0.050297629 2.95)
(0.26742968 0.0012084022 2.95)
(0.27949077 0.00086996332 2.95)
(0.28791577 0.096810736 2.95)
(0.29956675 0.00051554292 2.95)
(0.29394323 0.096938469 2.95)
(0.30936316 0.0003404133 2.95)
(0.32867375 0.097545803 2.95)
(0.33824986 0.00011976808 2.95)
(0.34437874 0.09766987 2.95)
(0.35084939 2.7406961e-05 2.95)
(0.3712019 7.8823417e-05 2.95)
(0.13329317 0.088755667 2.95)
(0.12719564 0.088183224 2.95)
(0.12685297 0.0092850626 2.95)
(0.11202496 0.086704984 2.95)
(0.80092937 0.043766927 2.95)
(0.81488889 0.04575805 2.95)
(0.82598007 0.073592298 2.95)
(0.82112646 0.046633482 2.95)
(0.83925086 0.049031928 2.95)
(0.84531087 0.049793456 2.95)
(0.93632531 0.055362962 2.95)
(0.9385016 0.055314247 2.95)
(0.94271559 0.055193502 2.95)
(0.028627114 0.072584704 2.95)
(0.027801909 0.072322726 2.95)
(0.026895795 0.072027586 2.95)
(0.025879914 0.071688488 2.95)
(0.0003616625 0.046871744 2.95)
(0.00039230334 0.046778388 2.95)
(0.00042711958 0.046674907 2.95)
(0.87203819 0.052702263 2.95)
(0.87685192 0.053155486 2.95)
(0.89011729 0.065978266 2.95)
(0.88002896 0.053429689 2.95)
(0.88341886 0.053693794 2.95)
(0.89048934 0.054185275 2.95)
(0.89682442 0.054594241 2.95)
(0.90044731 0.054800425 2.95)
(0.90383029 0.054965448 2.95)
(0.024443315 0.071196616 2.95)
(0.022328643 0.070453569 2.95)
(0.0019032916 0.043516506 2.95)
(0.001998446 0.043356322 2.95)
(0.90738142 0.055111062 2.95)
(0.9112525 0.05524046 2.95)
(0.99579668 0.050288305 2.95)
(0.99585384 0.050279088 2.95)
(0.99591035 0.050269976 2.95)
(0.99995476 0.049637359 2.95)
(0.99993181 0.049642473 2.95)
(0.99991876 0.049630567 2.95)
(0.00033425906 0.046957407 2.95)
(0.019689018 0.069489576 2.95)
(0.00030946929 0.047036994 2.95)
(0.0018128407 0.043671578 2.95)
(0.99987507 0.049636539 2.95)
(0.99989164 0.049651098 2.95)
(0.9997704 0.049651649 2.95)
(0.99981266 0.049667399 2.95)
(0.99957573 0.049681108 2.95)
(0.99962962 0.049703732 2.95)
(0.99956894 0.049682152 2.95)
(0.99897748 0.049827918 2.95)
(0.99696594 0.050099429 2.95)
(0.99643797 0.050184794 2.95)
(0.0063472032 0.037993126 2.95)
(0.0065376027 0.037813738 2.95)
(0.037607703 0.07499934 2.95)
(0.03574862 0.074548744 2.95)
(0.03447618 0.074230254 2.95)
(0.033393789 0.073950693 2.95)
(0.092645086 0.084579408 2.95)
(0.095617764 0.012764361 2.95)
(0.098049663 0.085207567 2.95)
(0.10354069 0.011790346 2.95)
(0.10731599 0.08622393 2.95)
(0.11125522 0.010901731 2.95)
(0.11973256 0.0099945478 2.95)
(0.001565919 0.044110753 2.95)
(0.0016444798 0.043968305 2.95)
(0.0017266865 0.043822035 2.95)
(0.018715652 0.030000092 2.95)
(0.019232417 0.029773697 2.95)
(0.041408159 0.075892575 2.95)
(0.019811025 0.029525258 2.95)
(0.065726176 0.017031007 2.95)
(0.069136329 0.01647988 2.95)
(0.073078938 0.081868872 2.95)
(0.9959662 0.050260969 2.95)
(0.99602133 0.050252065 2.95)
(0.99607587 0.050243266 2.95)
(0.005809824 0.038515992 2.95)
(0.0059836083 0.038344096 2.95)
(0.0061626411 0.038169857 2.95)
(0.0078014736 0.036689945 2.95)
(0.0080286572 0.036499135 2.95)
(0.0082605807 0.036307551 2.95)
(0.017408762 0.030595841 2.95)
(0.017812213 0.030407986 2.95)
(0.018245552 0.030210266 2.95)
(0.020609688 0.029189644 2.95)
(0.021721145 0.028733144 2.95)
(0.045125257 0.076739416 2.95)
(0.023987206 0.027822139 2.95)
(0.025389496 0.02726973 2.95)
(0.033762969 0.024353204 2.95)
(0.034780964 0.024048228 2.95)
(0.050426695 0.077881351 2.95)
(0.036207661 0.023632804 2.95)
(0.053054258 0.078413472 2.95)
(0.038255896 0.023054264 2.95)
(0.055833839 0.078953534 2.95)
(0.041528344 0.022154182 2.95)
(0.058891878 0.079522967 2.95)
(0.043586351 0.021604074 2.95)
(0.045323681 0.021153303 2.95)
(0.062463935 0.080158561 2.95)
(0.089478865 0.084183946 2.95)
(0.086231895 0.083751604 2.95)
(0.087995417 0.013761625 2.95)
(0.07797002 0.08258383 2.95)
(0.078769892 0.01504419 2.95)
(0.072818451 0.015913308 2.95)
(0.032452524 0.073699839 2.95)
(0.031611782 0.073468767 2.95)
(0.030846449 0.073251985 2.95)
(0.069418035 0.081308618 2.95)
(0.06603229 0.080763087 2.95)
(0.05517165 0.018930549 2.95)
(0.019149614 0.069282211 2.95)
(0.018672016 0.069094338 2.95)
(0.00028685297 0.04711163 2.95)
(0.018240094 0.068920538 2.95)
(0.017843502 0.068757348 2.95)
(0.0013496338 0.04451818 2.95)
(0.0014187141 0.044385429 2.95)
(0.0014907409 0.044249702 2.95)
(0.047710475 0.077307403 2.95)
(0.032033011 0.024892054 2.95)
(0.032856375 0.024632046 2.95)
(0.99612975 0.050234571 2.95)
(0.99618298 0.050225977 2.95)
(0.99623555 0.050217483 2.95)
(0.99994349 0.049627356 2.95)
(0.99995995 0.049625345 2.95)
(0.99996895 0.049634069 2.95)
(0.99997109 0.049624056 2.95)
(0.9999783 0.049631819 2.95)
(0.99997896 0.049623214 2.95)
(0.9999848 0.049630206 2.95)
(0.99998462 0.04962264 2.95)
(0.99998951 0.049629007 2.95)
(0.99998885 0.049622249 2.95)
(0.99999255 0.049628198 2.95)
(0.99999213 0.049621973 2.95)
(0.99999493 0.049627535 2.95)
(0.030136853 0.073044971 2.95)
(0.029388281 0.072820008 2.95)
(0.006734177 0.037631508 2.95)
(0.0069373013 0.037446238 2.95)
(0.0071468167 0.037258238 2.95)
(0.016333014 0.031117002 2.95)
(0.016672837 0.030948944 2.95)
(0.017030215 0.030775698 2.95)
(0.99628752 0.050209094 2.95)
(0.99633884 0.050200801 2.95)
(0.0053174896 0.039018948 2.95)
(0.0054769921 0.038853299 2.95)
(0.0056410306 0.038685687 2.95)
(0.0073607005 0.037069451 2.95)
(0.0075788717 0.036880039 2.95)
(0.026533281 0.026828723 2.95)
(0.027511803 0.026459957 2.95)
(0.04682117 0.020776976 2.95)
(0.048151664 0.020453557 2.95)
(0.049377359 0.020165771 2.95)
(0.05067379 0.019872354 2.95)
(0.05201222 0.019580467 2.95)
(0.053575907 0.019252406 2.95)
(0.056961123 0.01858326 2.95)
(0.059424706 0.018124942 2.95)
(0.062561214 0.017567553 2.95)
(0.0011583439 0.044900645 2.95)
(0.0012196036 0.044775601 2.95)
(0.001283318 0.04464817 2.95)
(0.9999969 0.049626987 2.95)
(0.99999464 0.049621779 2.95)
(0.99999666 0.049621638 2.95)
(0.99999982 0.049626138 2.95)
(0.99999958 0.049621467 2.95)
(1.0000019 0.049625516 2.95)
(1.0000017 0.049621381 2.95)
(1.0000039 0.049624849 2.95)
(0.017475223 0.068602428 2.95)
(0.017130269 0.068454131 2.95)
(0.00026608564 0.047182139 2.95)
(0.00024691995 0.047249142 2.95)
(0.028375439 0.026142094 2.95)
(0.029156152 0.025861628 2.95)
(0.029874057 0.025610032 2.95)
(0.0048642512 0.039505154 2.95)
(0.0050112996 0.03934478 2.95)
(0.005162321 0.039182745 2.95)
(0.0097953947 0.035114042 2.95)
(0.010066592 0.034915358 2.95)
(0.010344231 0.034715414 2.95)
(0.010628588 0.034514122 2.95)
(0.03055539 0.025377262 2.95)
(0.031275306 0.025137682 2.95)
(0.0035223477 0.058143523 2.95)
(0.0034185038 0.057995923 2.95)
(0.016804956 0.068311244 2.95)
(0.00098795665 0.045263108 2.95)
(0.0010426722 0.045144178 2.95)
(0.0010994065 0.045023456 2.95)
(0.0036268362 0.058289465 2.95)
(0.0033153212 0.057846662 2.95)
(0.0032128163 0.057695739 2.95)
(0.0031110067 0.057543144 2.95)
(0.010919959 0.034311406 2.95)
(0.011218575 0.034107246 2.95)
(0.011521294 0.033903927 2.95)
(1.0037165e-05 0.048955571 2.95)
(9.9791114e-06 0.048894539 2.95)
(0.00019727909 0.04743351 2.95)
(0.0002126575 0.047374479 2.95)
(0.00022916228 0.047313128 2.95)
(0.0044453754 0.039977122 2.95)
(0.0045814356 0.039821245 2.95)
(0.0047210138 0.039663948 2.95)
(0.0090179536 0.035703208 2.95)
(0.0092713041 0.035507903 2.95)
(0.0095303794 0.035311535 2.95)
(1.0000037 0.049621332 2.95)
(1.0000061 0.049624041 2.95)
(1.0451988e-05 0.048829935 2.95)
(1.1436829e-05 0.048768509 2.95)
(1.260604e-05 0.048719779 2.95)
(0.0087684384 0.035898834 2.95)
(0.0030099107 0.057388879 2.95)
(0.0029095465 0.057232942 2.95)
(0.0028099332 0.057075333 2.95)
(0.011826476 0.033702593 2.95)
(0.012134086 0.03350329 2.95)
(0.012444084 0.033306062 2.95)
(0.00015692858 0.047599077 2.95)
(0.00016949889 0.047545601 2.95)
(0.00018292222 0.047490478 2.95)
(0.00046686307 0.04655974 2.95)
(0.00050832954 0.046442699 2.95)
(0.00055095612 0.046325464 2.95)
(0.0040570232 0.040436894 2.95)
(0.0041832873 0.040284883 2.95)
(0.0043127011 0.040131643 2.95)
(0.015862206 0.067878768 2.95)
(0.015564874 0.067736216 2.95)
(0.0038377712 0.058576524 2.95)
(0.0027110907 0.056916047 2.95)
(0.002613039 0.056755088 2.95)
(0.0025157991 0.056592461 2.95)
(0.00059475127 0.046208043 2.95)
(0.00063972193 0.046090443 2.95)
(0.00068587472 0.045972671 2.95)
(0.012756426 0.03311095 2.95)
(0.013071068 0.032918002 2.95)
(0.013387964 0.032727264 2.95)
(0.015269729 0.067591682 2.95)
(0.014976365 0.06744498 2.95)
(0.014684831 0.067296162 2.95)
(0.00012364726 0.047751568 2.95)
(0.00013404699 0.047701966 2.95)
(0.0001451273 0.047651164 2.95)
(0.0037319534 0.05843376 2.95)
(0.016496466 0.068172857 2.95)
(0.016171152 0.068023689 2.95)
(0.0020987869 0.043190435 2.95)
(0.0022041041 0.04301947 2.95)
(0.0023111191 0.04284893 2.95)
(0.0024193921 0.056428164 2.95)
(0.00232384 0.056262203 2.95)
(0.0022291653 0.056094583 2.95)
(0.00073321612 0.045854744 2.95)
(0.00078175223 0.045736667 2.95)
(0.00083148899 0.045618452 2.95)
(0.013707068 0.032538772 2.95)
(0.014028328 0.032352574 2.95)
(0.014351694 0.032168716 2.95)
(0.014395175 0.067145251 2.95)
(0.014107442 0.06699229 2.95)
(0.013821679 0.066837311 2.95)
(9.6184529e-05 0.047893889 2.95)
(0.00010474751 0.047847465 2.95)
(0.00011389176 0.047800045 2.95)
(0.00088243192 0.045500115 2.95)
(0.00093458628 0.045381662 2.95)
(0.0024193954 0.042679518 2.95)
(0.002528914 0.042511258 2.95)
(0.0026396562 0.042344172 2.95)
(1.0000058 0.049621355 2.95)
(0.014677113 0.031987235 2.95)
(0.015004529 0.031808183 2.95)
(0.015333886 0.031631589 2.95)
(0.013537928 0.066680364 2.95)
(0.01325623 0.066521481 2.95)
(0.012976624 0.066360697 2.95)
(1.6424043e-05 0.04924823 2.95)
(1.3837151e-05 0.049171802 2.95)
(7.3720927e-05 0.048027739 2.95)
(8.0695274e-05 0.047983978 2.95)
(8.8175468e-05 0.047939379 2.95)
(0.015665125 0.031457506 2.95)
(0.01599819 0.031285964 2.95)
(1.9660594e-05 0.049324952 2.95)
(1.1894443e-05 0.04909566 2.95)
(1.0601788e-05 0.049019851 2.95)
(0.0027516028 0.042178273 2.95)
(0.0028647347 0.042013586 2.95)
(0.0029790327 0.041850127 2.95)
(0.012699149 0.066198051 2.95)
(0.012423837 0.066033579 2.95)
(0.012150724 0.065867335 2.95)
(5.5628938e-05 0.048154391 2.95)
(6.12066e-05 0.048112907 2.95)
(6.7231231e-05 0.048070703 2.95)
(3.3327178e-05 0.049556945 2.95)
(2.8105995e-05 0.049479302 2.95)
(2.3552568e-05 0.049401972 2.95)
(0.0030944776 0.041687913 2.95)
(0.0032110498 0.041526958 2.95)
(0.0033287304 0.041367285 2.95)
(0.011879844 0.065699339 2.95)
(0.011611222 0.06552963 2.95)
(0.011344891 0.065358259 2.95)
(4.1038613e-05 0.048278406 2.95)
(4.5639754e-05 0.048236288 2.95)
(5.0481402e-05 0.048195191 2.95)
(0.00051701325 0.052093986 2.95)
(0.00047955211 0.051963259 2.95)
(0.0034474996 0.041208908 2.95)
(0.0035673382 0.041051839 2.95)
(0.0036882272 0.040896092 2.95)
(0.0038101471 0.040741682 2.95)
(0.0039330786 0.040588625 2.95)
(5.3183052e-05 0.049793061 2.95)
(4.5812587e-05 0.049713355 2.95)
(3.9222727e-05 0.049634911 2.95)
(2.8789915e-05 0.048411656 2.95)
(3.2602307e-05 0.048365995 2.95)
(3.6689227e-05 0.048321612 2.95)
(0.00063766731 0.052489884 2.95)
(0.00059605454 0.052357305 2.95)
(0.00055584195 0.052225336 2.95)
(0.0078510744 0.062775537 2.95)
(0.0076550781 0.062608384 2.95)
(0.00746297 0.062441729 2.95)
(0.0072765849 0.062277295 2.95)
(0.0039455793 0.058719479 2.95)
(0.0070918757 0.062111579 2.95)
(0.0069107027 0.061946273 2.95)
(1.9145893e-05 0.048557468 2.95)
(2.2045082e-05 0.048507255 2.95)
(2.5265674e-05 0.048458699 2.95)
(0.0042841299 0.059153013 2.95)
(0.0041686893 0.059007693 2.95)
(0.0040558623 0.058863193 2.95)
(0.00077106932 0.052891269 2.95)
(0.00072515861 0.052756872 2.95)
(0.00068069663 0.052623075 2.95)
(8.0384896e-05 0.050041147 2.95)
(7.0433285e-05 0.049956881 2.95)
(6.1378436e-05 0.049874213 2.95)
(0.008463691 0.063280419 2.95)
(0.0082552452 0.063111529 2.95)
(0.0080510862 0.062943242 2.95)
(1.4397341e-05 0.048663609 2.95)
(1.6588616e-05 0.048609521 2.95)
(0.0046468899 0.059594184 2.95)
(0.004523152 0.059446227 2.95)
(0.0044022589 0.059299182 2.95)
(0.00091765169 0.05329797 2.95)
(0.00086729991 0.053161822 2.95)
(0.00081844453 0.053026255 2.95)
(0.0001160439 0.050304446 2.95)
(0.00010314403 0.050214827 2.95)
(9.1273774e-05 0.050127096 2.95)
(0.011080874 0.065185249 2.95)
(0.010819199 0.065010652 2.95)
(0.010559903 0.064834498 2.95)
(0.0091162613 0.063791126 2.95)
(0.0088940393 0.06362018 2.95)
(0.0086765708 0.063449956 2.95)
(0.0010799024 0.053714924 2.95)
(0.0010237902 0.053574208 2.95)
(0.00096973212 0.053435251 2.95)
(0.00016145395 0.05058571 2.95)
(0.00014514895 0.050489817 2.95)
(0.00013002627 0.05039607 2.95)
(0.009813237 0.064308748 2.95)
(0.0095756706 0.064135365 2.95)
(0.0093434108 0.06396284 2.95)
(0.0051720277 0.060195766 2.95)
(0.0050360314 0.060043834 2.95)
(0.0067329742 0.061781354 2.95)
(0.0049032397 0.059892952 2.95)
(0.0047735563 0.05974308 2.95)
(0.00021807279 0.050887305 2.95)
(0.00019783623 0.050784267 2.95)
(0.00017899151 0.0506838 2.95)
(0.001261404 0.054148577 2.95)
(0.0011986189 0.054002009 2.95)
(0.0011381496 0.053857494 2.95)
(0.010305132 0.064658262 2.95)
(0.010056317 0.064483024 2.95)
(0.005600282 0.060658213 2.95)
(0.0054540443 0.060502913 2.95)
(0.0053113303 0.060348779 2.95)
(0.0021353904 0.055925313 2.95)
(0.0020425387 0.055754397 2.95)
(0.0019506449 0.055581849 2.95)
(0.00028816823 0.051214285 2.95)
(0.00026312019 0.051102035 2.95)
(0.0002397974 0.050993141 2.95)
(0.0014647086 0.054601733 2.95)
(0.0013943348 0.054448314 2.95)
(0.0013266061 0.054297306 2.95)
(0.0060613328 0.061131507 2.95)
(0.0059037996 0.060972463 2.95)
(0.0057501593 0.060814712 2.95)
(0.00044344206 0.051833153 2.95)
(0.00040866697 0.051703669 2.95)
(0.00037527882 0.051575024 2.95)
(0.00034405926 0.051450331 2.95)
(0.00031508974 0.051330242 2.95)
(0.0016930545 0.055077955 2.95)
(0.0016139208 0.054916389 2.95)
(0.001537857 0.054757707 2.95)
(0.0062228944 0.061291888 2.95)
(0.006558686 0.061616879 2.95)
(0.0063886289 0.061453663 2.95)
(0.0018612278 0.055410482 2.95)
(0.0017754277 0.055242579 2.95)
(0.98727548 0.051590234 1e-07)
(0.98571956 0.051797759 1e-07)
(0.98679072 0.052013867 1e-07)
(0.98393983 0.052020185 1e-07)
(0.97970361 0.053222045 1e-07)
(0.77913535 0.078650475 1e-07)
(0.80209726 0.076284468 1e-07)
(0.80092937 0.043766927 1e-07)
(0.70366019 0.028180253 1e-07)
(0.74066263 0.082398593 1e-07)
(0.77154887 0.039210878 1e-07)
(0.7608012 0.080532275 1e-07)
(0.7795127 0.040504828 1e-07)
(0.79281217 0.042538259 1e-07)
(0.43055594 0.097814724 1e-07)
(0.4484061 0.09758874 1e-07)
(0.44048926 0.001163654 1e-07)
(0.96611607 0.053886872 1e-07)
(0.9644708 0.055643819 1e-07)
(0.96852773 0.053684462 1e-07)
(0.97151548 0.054557733 1e-07)
(0.97047353 0.053504732 1e-07)
(0.50961864 0.0041004159 1e-07)
(0.50966322 0.09643244 1e-07)
(0.51555538 0.0044514909 1e-07)
(0.52549434 0.095918268 1e-07)
(0.52176553 0.0048694424 1e-07)
(0.54974806 0.095134743 1e-07)
(0.55899155 0.094745204 1e-07)
(0.55744147 0.0076972134 1e-07)
(0.60877615 0.092346787 1e-07)
(0.61726725 0.014820769 1e-07)
(0.59995204 0.012534779 1e-07)
(0.20846182 0.093875378 1e-07)
(0.2071739 0.0035176799 1e-07)
(0.19846146 0.0039428659 1e-07)
(0.43025282 0.00093008205 1e-07)
(0.40929401 0.00046400726 1e-07)
(0.39048395 0.097915292 1e-07)
(0.49909398 0.0035484433 1e-07)
(0.48952723 0.0030502304 1e-07)
(0.47795558 0.097145289 1e-07)
(0.47784001 0.002558846 1e-07)
(0.46989784 0.097321987 1e-07)
(0.46099237 0.0018362701 1e-07)
(0.45437494 0.0016110465 1e-07)
(0.39896742 0.00034062564 1e-07)
(0.37990081 0.00010225922 1e-07)
(0.37997502 0.097940966 1e-07)
(0.3712019 7.8823417e-05 1e-07)
(0.34437874 0.09766987 1e-07)
(0.99568033 0.050307058 1e-07)
(0.99562114 0.050316598 1e-07)
(0.99517667 0.050522666 1e-07)
(0.99106008 0.051037531 1e-07)
(0.98908246 0.051334143 1e-07)
(0.54984552 0.0070047081 1e-07)
(0.54283899 0.0064159073 1e-07)
(0.53624868 0.0059174262 1e-07)
(0.18832035 0.092713304 1e-07)
(0.98075205 0.052389208 1e-07)
(0.97598559 0.052926563 1e-07)
(0.97252744 0.053299081 1e-07)
(0.58993417 0.093331113 1e-07)
(0.57991147 0.010081451 1e-07)
(0.58058858 0.093823329 1e-07)
(0.57367498 0.009366978 1e-07)
(0.5653671 0.0084807873 1e-07)
(0.62244993 0.015531823 1e-07)
(0.62918735 0.091079324 1e-07)
(0.63800478 0.017748352 1e-07)
(0.6506207 0.089738548 1e-07)
(0.65131873 0.019763138 1e-07)
(0.65937138 0.089102417 1e-07)
(0.66082507 0.02121787 1e-07)
(0.69138622 0.08666724 1e-07)
(0.72232169 0.084101677 1e-07)
(0.021043109 0.069992237 1e-07)
(0.022328643 0.070453569 1e-07)
(0.008739328 0.035921875 1e-07)
(0.96363044 0.054075602 1e-07)
(0.96015036 0.054314796 1e-07)
(0.94832683 0.058089525 1e-07)
(0.95484251 0.05464286 1e-07)
(0.95095521 0.054852583 1e-07)
(0.92811733 0.055461809 1e-07)
(0.92790645 0.060979087 1e-07)
(0.93222523 0.055429254 1e-07)
(0.93356395 0.060193628 1e-07)
(0.93632531 0.055362962 1e-07)
(0.82598007 0.073592298 1e-07)
(0.84897947 0.071009167 1e-07)
(0.84531087 0.049793456 1e-07)
(0.19215915 0.0043028258 1e-07)
(0.18527935 0.004750289 1e-07)
(0.18045837 0.092259228 1e-07)
(0.16041744 0.0064351149 1e-07)
(0.16243795 0.09105093 1e-07)
(0.15391347 0.0069208629 1e-07)
(0.15705088 0.090658307 1e-07)
(0.14774738 0.0074325949 1e-07)
(0.13908774 0.089254074 1e-07)
(0.13387299 0.0086465217 1e-07)
(0.13329317 0.088755667 1e-07)
(0.21418202 0.094162725 1e-07)
(0.22874297 0.094853207 1e-07)
(0.23212554 0.002350565 1e-07)
(0.23429413 0.095079377 1e-07)
(0.24820025 0.0017464757 1e-07)
(0.24346834 0.095409691 1e-07)
(0.26742968 0.0012084022 1e-07)
(0.26300538 0.096125871 1e-07)
(0.27949077 0.00086996332 1e-07)
(0.28791577 0.096810736 1e-07)
(0.29956675 0.00051554292 1e-07)
(0.29394323 0.096938469 1e-07)
(0.30936316 0.0003404133 1e-07)
(0.32867375 0.097545803 1e-07)
(0.33824986 0.00011976808 1e-07)
(0.35084939 2.7406961e-05 1e-07)
(0.99585384 0.050279088 1e-07)
(0.99579668 0.050288305 1e-07)
(0.99573886 0.050297629 1e-07)
(0.94692457 0.055037212 1e-07)
(0.94271559 0.055193502 1e-07)
(0.9385016 0.055314247 1e-07)
(0.92398781 0.05546014 1e-07)
(0.91979611 0.055423338 1e-07)
(0.9044624 0.064075187 1e-07)
(0.91550654 0.055349369 1e-07)
(0.9112525 0.05524046 1e-07)
(0.83925086 0.049031928 1e-07)
(0.82112646 0.046633482 1e-07)
(0.81488889 0.04575805 1e-07)
(0.00042711958 0.046674907 1e-07)
(0.00039230334 0.046778388 1e-07)
(0.020316834 0.069725424 1e-07)
(0.99962962 0.049703732 1e-07)
(0.99981266 0.049667399 1e-07)
(0.9997704 0.049651649 1e-07)
(0.90044731 0.054800425 1e-07)
(0.89011729 0.065978266 1e-07)
(0.89682442 0.054594241 1e-07)
(0.89048934 0.054185275 1e-07)
(0.88341886 0.053693794 1e-07)
(0.88002896 0.053429689 1e-07)
(0.85555679 0.070217073 1e-07)
(0.87685192 0.053155486 1e-07)
(0.87203819 0.052702263 1e-07)
(0.86161411 0.051649582 1e-07)
(0.85426241 0.050844647 1e-07)
(0.90738142 0.055111062 1e-07)
(0.90383029 0.054965448 1e-07)
(0.024443315 0.071196616 1e-07)
(0.025879914 0.071688488 1e-07)
(0.026895795 0.072027586 1e-07)
(0.03447618 0.074230254 1e-07)
(0.03574862 0.074548744 1e-07)
(0.037607703 0.07499934 1e-07)
(0.041408159 0.075892575 1e-07)
(0.99987507 0.049636539 1e-07)
(0.99989164 0.049651098 1e-07)
(0.99991876 0.049630567 1e-07)
(0.99993181 0.049642473 1e-07)
(0.99994349 0.049627356 1e-07)
(0.99995476 0.049637359 1e-07)
(0.99995995 0.049625345 1e-07)
(0.99957573 0.049681108 1e-07)
(0.99956894 0.049682152 1e-07)
(0.99897748 0.049827918 1e-07)
(0.99696594 0.050099429 1e-07)
(0.99643797 0.050184794 1e-07)
(0.99633884 0.050200801 1e-07)
(0.12719564 0.088183224 1e-07)
(0.12685297 0.0092850626 1e-07)
(0.11202496 0.086704984 1e-07)
(0.11973256 0.0099945478 1e-07)
(0.10731599 0.08622393 1e-07)
(0.11125522 0.010901731 1e-07)
(0.098049663 0.085207567 1e-07)
(0.0069373013 0.037446238 1e-07)
(0.006734177 0.037631508 1e-07)
(0.99602133 0.050252065 1e-07)
(0.9959662 0.050260969 1e-07)
(0.99591035 0.050269976 1e-07)
(0.078769892 0.01504419 1e-07)
(0.073078938 0.081868872 1e-07)
(0.087995417 0.013761625 1e-07)
(0.07797002 0.08258383 1e-07)
(0.095617764 0.012764361 1e-07)
(0.086231895 0.083751604 1e-07)
(0.089478865 0.084183946 1e-07)
(0.0003616625 0.046871744 1e-07)
(0.00033425906 0.046957407 1e-07)
(0.019689018 0.069489576 1e-07)
(0.00030946929 0.047036994 1e-07)
(0.019149614 0.069282211 1e-07)
(0.058891878 0.079522967 1e-07)
(0.043586351 0.021604074 1e-07)
(0.055833839 0.078953534 1e-07)
(0.041528344 0.022154182 1e-07)
(0.053054258 0.078413472 1e-07)
(0.10354069 0.011790346 1e-07)
(0.092645086 0.084579408 1e-07)
(0.0019032916 0.043516506 1e-07)
(0.0018128407 0.043671578 1e-07)
(0.0017266865 0.043822035 1e-07)
(0.020609688 0.029189644 1e-07)
(0.019811025 0.029525258 1e-07)
(0.019232417 0.029773697 1e-07)
(0.018715652 0.030000092 1e-07)
(0.018245552 0.030210266 1e-07)
(0.0084974114 0.036115151 1e-07)
(0.0082605807 0.036307551 1e-07)
(0.0065376027 0.037813738 1e-07)
(0.0063472032 0.037993126 1e-07)
(0.0061626411 0.038169857 1e-07)
(0.031611782 0.073468767 1e-07)
(0.032452524 0.073699839 1e-07)
(0.033393789 0.073950693 1e-07)
(0.99618298 0.050225977 1e-07)
(0.99612975 0.050234571 1e-07)
(0.99607587 0.050243266 1e-07)
(0.072818451 0.015913308 1e-07)
(0.069136329 0.01647988 1e-07)
(0.065726176 0.017031007 1e-07)
(0.027511803 0.026459957 1e-07)
(0.026533281 0.026828723 1e-07)
(0.045125257 0.076739416 1e-07)
(0.025389496 0.02726973 1e-07)
(0.023987206 0.027822139 1e-07)
(0.021721145 0.028733144 1e-07)
(0.018672016 0.069094338 1e-07)
(0.00028685297 0.04711163 1e-07)
(0.018240094 0.068920538 1e-07)
(0.034780964 0.024048228 1e-07)
(0.050426695 0.077881351 1e-07)
(0.036207661 0.023632804 1e-07)
(0.038255896 0.023054264 1e-07)
(0.0016444798 0.043968305 1e-07)
(0.001565919 0.044110753 1e-07)
(0.0014907409 0.044249702 1e-07)
(0.99997109 0.049624056 1e-07)
(0.99996895 0.049634069 1e-07)
(0.99997896 0.049623214 1e-07)
(0.9999783 0.049631819 1e-07)
(0.99998462 0.04962264 1e-07)
(0.9999848 0.049630206 1e-07)
(0.99998885 0.049622249 1e-07)
(0.99998951 0.049629007 1e-07)
(0.99999213 0.049621973 1e-07)
(0.049377359 0.020165771 1e-07)
(0.048151664 0.020453557 1e-07)
(0.062463935 0.080158561 1e-07)
(0.04682117 0.020776976 1e-07)
(0.045323681 0.021153303 1e-07)
(0.017812213 0.030407986 1e-07)
(0.017408762 0.030595841 1e-07)
(0.017030215 0.030775698 1e-07)
(0.0080286572 0.036499135 1e-07)
(0.0078014736 0.036689945 1e-07)
(0.0075788717 0.036880039 1e-07)
(0.0059836083 0.038344096 1e-07)
(0.005809824 0.038515992 1e-07)
(0.0056410306 0.038685687 1e-07)
(0.027801909 0.072322726 1e-07)
(0.028627114 0.072584704 1e-07)
(0.029388281 0.072820008 1e-07)
(0.99628752 0.050209094 1e-07)
(0.99623555 0.050217483 1e-07)
(0.05517165 0.018930549 1e-07)
(0.06603229 0.080763087 1e-07)
(0.056961123 0.01858326 1e-07)
(0.069418035 0.081308618 1e-07)
(0.059424706 0.018124942 1e-07)
(0.062561214 0.017567553 1e-07)
(0.033762969 0.024353204 1e-07)
(0.032856375 0.024632046 1e-07)
(0.047710475 0.077307403 1e-07)
(0.032033011 0.024892054 1e-07)
(0.031275306 0.025137682 1e-07)
(0.0022041041 0.04301947 1e-07)
(0.0020987869 0.043190435 1e-07)
(0.001998446 0.043356322 1e-07)
(0.017130269 0.068454131 1e-07)
(0.017475223 0.068602428 1e-07)
(0.017843502 0.068757348 1e-07)
(0.030136853 0.073044971 1e-07)
(0.030846449 0.073251985 1e-07)
(0.99999255 0.049628198 1e-07)
(0.99999493 0.049627535 1e-07)
(0.99999464 0.049621779 1e-07)
(0.9999969 0.049626987 1e-07)
(0.99999666 0.049621638 1e-07)
(0.99999982 0.049626138 1e-07)
(0.99999958 0.049621467 1e-07)
(1.0000019 0.049625516 1e-07)
(1.0000017 0.049621381 1e-07)
(0.0073607005 0.037069451 1e-07)
(0.0071468167 0.037258238 1e-07)
(0.0014187141 0.044385429 1e-07)
(0.0013496338 0.04451818 1e-07)
(0.001283318 0.04464817 1e-07)
(0.053575907 0.019252406 1e-07)
(0.05201222 0.019580467 1e-07)
(0.05067379 0.019872354 1e-07)
(0.028375439 0.026142094 1e-07)
(0.029156152 0.025861628 1e-07)
(0.011218575 0.034107246 1e-07)
(0.010919959 0.034311406 1e-07)
(0.0054769921 0.038853299 1e-07)
(0.0053174896 0.039018948 1e-07)
(0.005162321 0.039182745 1e-07)
(0.03055539 0.025377262 1e-07)
(0.029874057 0.025610032 1e-07)
(0.010628588 0.034514122 1e-07)
(0.010344231 0.034715414 1e-07)
(0.010066592 0.034915358 1e-07)
(0.0012196036 0.044775601 1e-07)
(0.0011583439 0.044900645 1e-07)
(0.0010994065 0.045023456 1e-07)
(0.016672837 0.030948944 1e-07)
(0.016333014 0.031117002 1e-07)
(0.01599819 0.031285964 1e-07)
(1.0000039 0.049624849 1e-07)
(1.0000037 0.049621332 1e-07)
(0.0050112996 0.03934478 1e-07)
(0.0048642512 0.039505154 1e-07)
(0.0047210138 0.039663948 1e-07)
(0.00026608564 0.047182139 1e-07)
(0.00024691995 0.047249142 1e-07)
(0.00022916228 0.047313128 1e-07)
(0.0032128163 0.057695739 1e-07)
(0.0033153212 0.057846662 1e-07)
(0.016804956 0.068311244 1e-07)
(0.0034185038 0.057995923 1e-07)
(0.0035223477 0.058143523 1e-07)
(0.012134086 0.03350329 1e-07)
(0.011826476 0.033702593 1e-07)
(0.011521294 0.033903927 1e-07)
(0.0097953947 0.035114042 1e-07)
(0.0095303794 0.035311535 1e-07)
(0.0092713041 0.035507903 1e-07)
(0.0029095465 0.057232942 1e-07)
(0.0030099107 0.057388879 1e-07)
(0.0031110067 0.057543144 1e-07)
(0.0090179536 0.035703208 1e-07)
(0.0087684384 0.035898834 1e-07)
(0.0010426722 0.045144178 1e-07)
(0.00098795665 0.045263108 1e-07)
(0.00093458628 0.045381662 1e-07)
(1.1436829e-05 0.048768509 1e-07)
(1.0451988e-05 0.048829935 1e-07)
(0.0045814356 0.039821245 1e-07)
(0.0044453754 0.039977122 1e-07)
(0.0043127011 0.040131643 1e-07)
(0.00059475127 0.046208043 1e-07)
(0.00055095612 0.046325464 1e-07)
(0.0002126575 0.047374479 1e-07)
(0.00019727909 0.04743351 1e-07)
(0.00018292222 0.047490478 1e-07)
(1.0000058 0.049624145 1e-07)
(0.013071068 0.032918002 1e-07)
(0.012756426 0.03311095 1e-07)
(0.012444084 0.033306062 1e-07)
(0.00063972193 0.046090443 1e-07)
(0.00050832954 0.046442699 1e-07)
(0.00046686307 0.04655974 1e-07)
(0.002613039 0.056755088 1e-07)
(0.0027110907 0.056916047 1e-07)
(0.0028099332 0.057075333 1e-07)