/*--------------------------------*- C++ -*----------------------------------*\
| =========                 |                                                 |
| \\      /  F ield         | OpenFOAM: The Open Source CFD Toolbox           |
|  \\    /   O peration     | Version:  2306                                  |
|   \\  /    A nd           | Website:  www.openfoam.com                      |
|    \\/     M anipulation  |                                                 |
\*---------------------------------------------------------------------------*/
FoamFile
{
    version     2.0;
    format      ascii;
    arch        "LSB;label=32;scalar=64";
    class       extendedFeatureEdgeMesh;
    location    "constant/extendedFeatureEdgeMesh";
    object      NASAsc2-0410.extendedFeatureEdgeMesh;
}
// * * * * * * * * * * * * * * * * * * * * * * * * * * * * * * * * * * * * * //

// points

424
(
(0.88819802 0.073944956 0.0099999998)
(0.88819802 0.073944956 2.9400001)
(1.0178183 0.065562531 0)
(0.99117672 0.070138529 0)
(0.99117672 0.070138529 2.95)
(1.0178183 0.065562531 2.95)
(0.9557718 0.075350508 0)
(0.9557718 0.075350508 2.95)
(0.91826367 0.080304123 0)
(0.91826367 0.080304123 2.95)
(0.87604088 0.085478604 0)
(0.87604088 0.085478604 2.95)
(0.8293159 0.090696216 0)
(0.8293159 0.090696216 2.95)
(0.78434247 0.095315911 0)
(0.78434247 0.095315911 2.95)
(0.74213916 0.09918195 0)
(0.74213916 0.09918195 2.95)
(0.69927073 0.10265173 0)
(0.69927073 0.10265173 2.95)
(0.66304201 0.10515691 0)
(0.66304201 0.10515691 2.95)
(0.62319201 0.10750262 0)
(0.62319201 0.10750262 2.95)
(0.58250183 0.10937098 0)
(0.58250183 0.10937098 2.95)
(0.52737755 0.11117338 0)
(0.52737755 0.11117338 2.95)
(0.47416148 0.11209726 0)
(0.47416148 0.11209726 2.95)
(0.40670338 0.11236428 0)
(0.40670338 0.11236428 2.95)
(0.3607533 0.11198959 0)
(0.3607533 0.11198959 2.95)
(0.31363332 0.11118552 0)
(0.31363332 0.11118552 2.95)
(0.27483726 0.11005171 0)
(0.27483726 0.11005171 2.95)
(0.23473996 0.10831159 0)
(0.23473996 0.10831159 2.95)
(0.19539972 0.10599948 0)
(0.19539972 0.10599948 2.95)
(0.16404392 0.10366271 0)
(0.16404392 0.10366271 2.95)
(0.13262318 0.10074852 0)
(0.13262318 0.10074852 2.95)
(0.11064181 0.098319612 0)
(0.11064181 0.098319612 2.95)
(0.089971669 0.095398813 0)
(0.089971669 0.095398813 2.95)
(0.07098598 0.092089295 0)
(0.07098598 0.092089295 2.95)
(0.058225594 0.089360587 0)
(0.058225594 0.089360587 2.95)
(0.046001114 0.086004198 0)
(0.046001114 0.086004198 2.95)
(0.038663149 0.083408602 0)
(0.038663149 0.083408602 2.95)
(0.032230608 0.080438361 0)
(0.032230608 0.080438361 2.95)
(0.026633563 0.077073812 0)
(0.026633563 0.077073812 2.95)
(0.024074346 0.075120926 0)
(0.024074346 0.075120926 2.95)
(0.022424389 0.073559128 0)
(0.022424389 0.073559128 2.95)
(0.021187177 0.072114721 0)
(0.021187177 0.072114721 2.95)
(0.020290062 0.070807517 0)
(0.020290062 0.070807517 2.95)
(0.019626252 0.06956812 0)
(0.019626252 0.06956812 2.95)
(0.019078199 0.068204403 0)
(0.019078199 0.068204403 2.95)
(0.018482843 0.066079937 0)
(0.018482843 0.066079937 2.95)
(0.017818278 0.062362529 0)
(0.017818278 0.062362529 2.95)
(0.018331969 0.059351243 0)
(0.018331969 0.059351243 2.95)
(0.018889921 0.057099823 0)
(0.018889921 0.057099823 2.95)
(0.019423116 0.055616092 0)
(0.019423116 0.055616092 2.95)
(0.020039 0.054348491 0)
(0.020039 0.054348491 2.95)
(0.020835118 0.053088445 0)
(0.020835118 0.053088445 2.95)
(0.021839952 0.051809918 0)
(0.021839952 0.051809918 2.95)
(0.023454808 0.050153665 0)
(0.023454808 0.050153665 2.95)
(0.025782507 0.048255391 0)
(0.025782507 0.048255391 2.95)
(0.030065542 0.045486324 0)
(0.030065542 0.045486324 2.95)
(0.036588408 0.042188328 0)
(0.036588408 0.042188328 2.95)
(0.043457232 0.039549954 0)
(0.043457232 0.039549954 2.95)
(0.053549074 0.036543645 0)
(0.053549074 0.036543645 2.95)
(0.066728219 0.033484593 0)
(0.066728219 0.033484593 2.95)
(0.085808367 0.029987086 0)
(0.085808367 0.029987086 2.95)
(0.10258987 0.027483791 0)
(0.10258987 0.027483791 2.95)
(0.13205248 0.023785029 0)
(0.13205248 0.023785029 2.95)
(0.16154122 0.020924609 0)
(0.16154122 0.020924609 2.95)
(0.19142205 0.018613108 0)
(0.19142205 0.018613108 2.95)
(0.22219144 0.016637161 0)
(0.22219144 0.016637161 2.95)
(0.25947136 0.014895372 0)
(0.25947136 0.014895372 2.95)
(0.30033234 0.013604425 0)
(0.30033234 0.013604425 2.95)
(0.35404521 0.012802046 0)
(0.35404521 0.012802046 2.95)
(0.39303106 0.012654021 0)
(0.39303106 0.012654021 2.95)
(0.4321472 0.013040327 0)
(0.4321472 0.013040327 2.95)
(0.47540665 0.01408387 0)
(0.47540665 0.01408387 2.95)
(0.51577091 0.015758157 0)
(0.51577091 0.015758157 2.95)
(0.55650973 0.018267266 0)
(0.55650973 0.018267266 2.95)
(0.58339334 0.020608202 0)
(0.58339334 0.020608202 2.95)
(0.61113334 0.023756031 0)
(0.61113334 0.023756031 2.95)
(0.64176059 0.0277072 0)
(0.64176059 0.0277072 2.95)
(0.67683208 0.032810926 0)
(0.67683208 0.032810926 2.95)
(0.67976993 0.033267528 0)
(0.67976993 0.033267528 2.95)
(0.77016997 0.047739115 0)
(0.77016997 0.047739115 2.95)
(0.81392783 0.054586377 0)
(0.81392783 0.054586377 2.95)
(0.84726572 0.05919103 0)
(0.84726572 0.05919103 2.95)
(0.875 0.062562883 0)
(0.875 0.062562883 2.95)
(0.89688689 0.064687088 0)
(0.89688689 0.064687088 2.95)
(0.9184013 0.066092081 0)
(0.9184013 0.066092081 2.95)
(0.9376688 0.066660993 0)
(0.9376688 0.066660993 2.95)
(0.95790315 0.066459984 0)
(0.95790315 0.066459984 2.95)
(0.97864199 0.065405525 0)
(0.97864199 0.065405525 2.95)
(0.9956196 0.063822903 0)
(0.9956196 0.063822903 2.95)
(1.0132269 0.061423033 0)
(1.0132269 0.061423033 2.95)
(1.0178183 0.06066253 0)
(1.0178183 0.06066253 2.95)
(1.0208548 0.060304899 0)
(1.0208548 0.060304899 2.95)
(1.0222898 0.06029002 0)
(1.0222898 0.06029002 2.95)
(1.0232029 0.060373086 0)
(1.0232029 0.060373086 2.95)
(1.023818 0.060495466 0)
(1.023818 0.060495466 2.95)
(1.024233 0.060625769 0)
(1.024233 0.060625769 2.95)
(1.0245327 0.060756736 0)
(1.0245327 0.060756736 2.95)
(1.0247562 0.060884945 0)
(1.0247562 0.060884945 2.95)
(1.0249276 0.061009832 0)
(1.0249276 0.061009832 2.95)
(1.0250695 0.06114012 0)
(1.0250695 0.06114012 2.95)
(1.0251741 0.06126086 0)
(1.0251741 0.06126086 2.95)
(1.0252646 0.061393268 0)
(1.0252646 0.061393268 2.95)
(1.025333 0.06152492 0)
(1.025333 0.06152492 2.95)
(1.0253837 0.061657909 0)
(1.0253837 0.061657909 2.95)
(1.0254185 0.061794709 0)
(1.0254185 0.061794709 2.95)
(1.025438 0.061937809 0)
(1.025438 0.061937809 2.95)
(1.0254411 0.062005226 0)
(1.0254411 0.062005226 2.95)
(1.0254353 0.062140934 0)
(1.0254353 0.062140934 2.95)
(1.0254136 0.062274873 0)
(1.0254136 0.062274873 2.95)
(1.0253757 0.062408671 0)
(1.0253757 0.062408671 2.95)
(1.0253195 0.062545821 0)
(1.0253195 0.062545821 2.95)
(1.0252409 0.062689908 0)
(1.0252409 0.062689908 2.95)
(1.0251334 0.06284494 0)
(1.0251334 0.06284494 2.95)
(1.0250708 0.062921897 0)
(1.0250708 0.062921897 2.95)
(1.0248942 0.063107431 0)
(1.0248942 0.063107431 2.95)
(1.0246538 0.063313432 0)
(1.0246538 0.063313432 2.95)
(1.0242287 0.063604593 0)
(1.0242287 0.063604593 2.95)
(1.0235505 0.063965529 0)
(1.0235505 0.063965529 2.95)
(1.0222714 0.064473301 0)
(1.0222714 0.064473301 2.95)
(1.0195941 0.065204829 0)
(1.0195941 0.065204829 2.95)
(0.027945071 0.062362529 0.0099999998)
(0.028319821 0.06422171 0.0099999998)
(0.028319821 0.06422171 2.9400001)
(0.027945071 0.062362529 2.9400001)
(0.028580209 0.065078534 0.0099999998)
(0.028580209 0.065078534 2.9400001)
(0.028732836 0.065431431 0.0099999998)
(0.028732836 0.065431431 2.9400001)
(0.028922446 0.065750062 0.0099999998)
(0.028922446 0.065750062 2.9400001)
(0.029309079 0.066262618 0.0099999998)
(0.029309079 0.066262618 2.9400001)
(0.029990448 0.066990584 0.0099999998)
(0.029990448 0.066990584 2.9400001)
(0.031108949 0.067960382 0.0099999998)
(0.031108949 0.067960382 2.9400001)
(0.033245631 0.069463484 0.0099999998)
(0.033245631 0.069463484 2.9400001)
(0.036628325 0.071451008 0.0099999998)
(0.036628325 0.071451008 2.9400001)
(0.040031344 0.073123731 0.0099999998)
(0.040031344 0.073123731 2.9400001)
(0.043825962 0.074689195 0.0099999998)
(0.043825962 0.074689195 2.9400001)
(0.048338547 0.076254539 0.0099999998)
(0.048338547 0.076254539 2.9400001)
(0.054243669 0.07800927 0.0099999998)
(0.054243669 0.07800927 2.9400001)
(0.060961984 0.079732805 0.0099999998)
(0.060961984 0.079732805 2.9400001)
(0.068647988 0.081426039 0.0099999998)
(0.068647988 0.081426039 2.9400001)
(0.07893683 0.083402932 0.0099999998)
(0.07893683 0.083402932 2.9400001)
(0.09008275 0.085296154 0.0099999998)
(0.09008275 0.085296154 2.9400001)
(0.10375457 0.087314308 0.0099999998)
(0.10375457 0.087314308 2.9400001)
(0.11500616 0.08877179 0.0099999998)
(0.11500616 0.08877179 2.9400001)
(0.12834407 0.090263039 0.0099999998)
(0.12834407 0.090263039 2.9400001)
(0.14936754 0.092365496 0.0099999998)
(0.14936754 0.092365496 2.9400001)
(0.16447252 0.093665443 0.0099999998)
(0.16447252 0.093665443 2.9400001)
(0.18575111 0.095296189 0.0099999998)
(0.18575111 0.095296189 2.9400001)
(0.21110965 0.096938439 0.0099999998)
(0.21110965 0.096938439 2.9400001)
(0.23480302 0.098302893 0.0099999998)
(0.23480302 0.098302893 2.9400001)
(0.25374213 0.099199936 0.0099999998)
(0.25374213 0.099199936 2.9400001)
(0.28448874 0.10036479 0.0099999998)
(0.28448874 0.10036479 2.9400001)
(0.30938336 0.10109696 0.0099999998)
(0.30938336 0.10109696 2.9400001)
(0.34671256 0.10184346 0.0099999998)
(0.34671256 0.10184346 2.9400001)
(0.378335 0.102167 0.0099999998)
(0.378335 0.102167 2.9400001)
(0.41145575 0.10236014 0.0099999998)
(0.41145575 0.10236014 2.9400001)
(0.44547272 0.10237001 0.0099999998)
(0.44547272 0.10237001 2.9400001)
(0.47070104 0.10213242 0.0099999998)
(0.47070104 0.10213242 2.9400001)
(0.49570432 0.10180584 0.0099999998)
(0.49570432 0.10180584 2.9400001)
(0.52558702 0.10121199 0.0099999998)
(0.52558702 0.10121199 2.9400001)
(0.55176145 0.10043849 0.0099999998)
(0.55176145 0.10043849 2.9400001)
(0.57801837 0.099545561 0.0099999998)
(0.57801837 0.099545561 2.9400001)
(0.60915864 0.098180488 0.0099999998)
(0.60915864 0.098180488 2.9400001)
(0.63977909 0.096525162 0.0099999998)
(0.63977909 0.096525162 2.9400001)
(0.6671136 0.094887219 0.0099999998)
(0.6671136 0.094887219 2.9400001)
(0.69375002 0.093031704 0.0099999998)
(0.69375002 0.093031704 2.9400001)
(0.71970183 0.090979226 0.0099999998)
(0.71970183 0.090979226 2.9400001)
(0.74580306 0.088805132 0.0099999998)
(0.74580306 0.088805132 2.9400001)
(0.77506715 0.086176187 0.0099999998)
(0.77506715 0.086176187 2.9400001)
(0.80079556 0.083613753 0.0099999998)
(0.80079556 0.083613753 2.9400001)
(0.82953328 0.080611303 0.0099999998)
(0.82953328 0.080611303 2.9400001)
(0.86350232 0.076885365 0.0099999998)
(0.86350232 0.076885365 2.9400001)
(0.88520271 0.073656023 0.0099999998)
(0.88520271 0.073656023 2.9400001)
(0.8681249 0.071862414 0.0099999998)
(0.8681249 0.071862414 2.9400001)
(0.85247809 0.069957234 0.0099999998)
(0.85247809 0.069957234 2.9400001)
(0.82895172 0.066821061 0.0099999998)
(0.82895172 0.066821061 2.9400001)
(0.8097958 0.06407515 0.0099999998)
(0.8097958 0.06407515 2.9400001)
(0.78386122 0.060054421 0.0099999998)
(0.78386122 0.060054421 2.9400001)
(0.74942422 0.054546703 0.0099999998)
(0.74942422 0.054546703 2.9400001)
(0.69655752 0.046087883 0.0099999998)
(0.69655752 0.046087883 2.9400001)
(0.67244452 0.042261764 0.0099999998)
(0.67244452 0.042261764 2.9400001)
(0.65262765 0.039326139 0.0099999998)
(0.65262765 0.039326139 2.9400001)
(0.63333106 0.03665594 0.0099999998)
(0.63333106 0.03665594 2.9400001)
(0.61372143 0.03413498 0.0099999998)
(0.61372143 0.03413498 2.9400001)
(0.59103686 0.031462617 0.0099999998)
(0.59103686 0.031462617 2.9400001)
(0.57442206 0.029788084 0.0099999998)
(0.57442206 0.029788084 2.9400001)
(0.55849594 0.028441031 0.0099999998)
(0.55849594 0.028441031 2.9400001)
(0.5381673 0.027008705 0.0099999998)
(0.5381673 0.027008705 2.9400001)
(0.52140188 0.026051525 0.0099999998)
(0.52140188 0.026051525 2.9400001)
(0.49967974 0.025040459 0.0099999998)
(0.49967974 0.025040459 2.9400001)
(0.47452122 0.024061441 0.0099999998)
(0.47452122 0.024061441 2.9400001)
(0.45492136 0.02349782 0.0099999998)
(0.45492136 0.02349782 2.9400001)
(0.42894888 0.022981916 0.0099999998)
(0.42894888 0.022981916 2.9400001)
(0.39996883 0.022677142 0.0099999998)
(0.39996883 0.022677142 2.9400001)
(0.36979887 0.022655498 0.0099999998)
(0.36979887 0.022655498 2.9400001)
(0.34389538 0.022903439 0.0099999998)
(0.34389538 0.022903439 2.9400001)
(0.31886598 0.023242049 0.0099999998)
(0.31886598 0.023242049 2.9400001)
(0.29167604 0.023844715 0.0099999998)
(0.29167604 0.023844715 2.9400001)
(0.26806369 0.02456012 0.0099999998)
(0.26806369 0.02456012 2.9400001)
(0.24790342 0.025368784 0.0099999998)
(0.24790342 0.025368784 2.9400001)
(0.22140086 0.026689418 0.0099999998)
(0.22140086 0.026689418 2.9400001)
(0.20519201 0.027664352 0.0099999998)
(0.20519201 0.027664352 2.9400001)
(0.17521739 0.02978814 0.0099999998)
(0.17521739 0.02978814 2.9400001)
(0.15591305 0.031472243 0.0099999998)
(0.15591305 0.031472243 2.9400001)
(0.13874556 0.033120185 0.0099999998)
(0.13874556 0.033120185 2.9400001)
(0.12189826 0.035034455 0.0099999998)
(0.12189826 0.035034455 2.9400001)
(0.10592627 0.037115134 0.0099999998)
(0.10592627 0.037115134 2.9400001)
(0.090536252 0.039357465 0.0099999998)
(0.090536252 0.039357465 2.9400001)
(0.079368472 0.041244179 0.0099999998)
(0.079368472 0.041244179 2.9400001)
(0.068544194 0.043320406 0.0099999998)
(0.068544194 0.043320406 2.9400001)
(0.061204404 0.044934817 0.0099999998)
(0.061204404 0.044934817 2.9400001)
(0.054653808 0.046602793 0.0099999998)
(0.054653808 0.046602793 2.9400001)
(0.04831101 0.048479352 0.0099999998)
(0.04831101 0.048479352 2.9400001)
(0.044000901 0.049969982 0.0099999998)
(0.044000901 0.049969982 2.9400001)
(0.040186603 0.051531576 0.0099999998)
(0.040186603 0.051531576 2.9400001)
(0.036727086 0.0532213 0.0099999998)
(0.036727086 0.0532213 2.9400001)
(0.033846073 0.054881025 0.0099999998)
(0.033846073 0.054881025 2.9400001)
(0.031382538 0.056553148 0.0099999998)
(0.031382538 0.056553148 2.9400001)
(0.030058345 0.05766923 0.0099999998)
(0.030058345 0.05766923 2.9400001)
(0.029306747 0.058465231 0.0099999998)
(0.029306747 0.058465231 2.9400001)
(0.028948002 0.058937009 0.0099999998)
(0.028948002 0.058937009 2.9400001)
(0.028743785 0.059272528 0.0099999998)
(0.028743785 0.059272528 2.9400001)
(0.028606424 0.059578251 0.0099999998)
(0.028606424 0.059578251 2.9400001)
(0.028375695 0.06029094 0.0099999998)
(0.028375695 0.06029094 2.9400001)
)

// edges

425
(
(2 3)
(4 5)
(3 6)
(7 4)
(6 8)
(9 7)
(8 10)
(11 9)
(10 12)
(13 11)
(12 14)
(15 13)
(14 16)
(17 15)
(16 18)
(19 17)
(18 20)
(21 19)
(20 22)
(23 21)
(22 24)
(25 23)
(24 26)
(27 25)
(26 28)
(29 27)
(28 30)
(31 29)
(30 32)
(33 31)
(32 34)
(35 33)
(34 36)
(37 35)
(36 38)
(39 37)
(38 40)
(41 39)
(40 42)
(43 41)
(42 44)
(45 43)
(44 46)
(47 45)
(46 48)
(49 47)
(48 50)
(51 49)
(50 52)
(53 51)
(52 54)
(55 53)
(54 56)
(57 55)
(56 58)
(59 57)
(58 60)
(61 59)
(60 62)
(63 61)
(62 64)
(65 63)
(64 66)
(67 65)
(66 68)
(69 67)
(68 70)
(71 69)
(70 72)
(73 71)
(72 74)
(75 73)
(74 76)
(77 75)
(76 78)
(79 77)
(78 80)
(81 79)
(80 82)
(83 81)
(82 84)
(85 83)
(84 86)
(87 85)
(86 88)
(89 87)
(88 90)
(91 89)
(90 92)
(93 91)
(92 94)
(95 93)
(94 96)
(97 95)
(96 98)
(99 97)
(98 100)
(101 99)
(100 102)
(103 101)
(102 104)
(105 103)
(104 106)
(107 105)
(106 108)
(109 107)
(108 110)
(111 109)
(110 112)
(113 111)
(112 114)
(115 113)
(114 116)
(117 115)
(116 118)
(119 117)
(118 120)
(121 119)
(120 122)
(123 121)
(122 124)
(125 123)
(124 126)
(127 125)
(126 128)
(129 127)
(128 130)
(131 129)
(130 132)
(133 131)
(132 134)
(135 133)
(134 136)
(137 135)
(136 138)
(139 137)
(138 140)
(141 139)
(140 142)
(143 141)
(142 144)
(145 143)
(144 146)
(147 145)
(146 148)
(149 147)
(148 150)
(151 149)
(150 152)
(153 151)
(152 154)
(155 153)
(154 156)
(157 155)
(156 158)
(159 157)
(158 160)
(161 159)
(160 162)
(163 161)
(162 164)
(165 163)
(164 166)
(167 165)
(166 168)
(169 167)
(168 170)
(171 169)
(170 172)
(173 171)
(172 174)
(175 173)
(174 176)
(177 175)
(176 178)
(179 177)
(178 180)
(181 179)
(180 182)
(183 181)
(182 184)
(185 183)
(184 186)
(187 185)
(186 188)
(189 187)
(188 190)
(191 189)
(190 192)
(193 191)
(192 194)
(195 193)
(194 196)
(197 195)
(196 198)
(199 197)
(198 200)
(201 199)
(200 202)
(203 201)
(202 204)
(205 203)
(204 206)
(207 205)
(206 208)
(209 207)
(208 210)
(211 209)
(210 212)
(213 211)
(212 214)
(215 213)
(214 216)
(217 215)
(216 218)
(219 217)
(218 220)
(221 219)
(220 222)
(223 221)
(222 2)
(5 223)
(224 225)
(226 227)
(225 228)
(229 226)
(228 230)
(231 229)
(230 232)
(233 231)
(232 234)
(235 233)
(234 236)
(237 235)
(236 238)
(239 237)
(238 240)
(241 239)
(240 242)
(243 241)
(242 244)
(245 243)
(244 246)
(247 245)
(246 248)
(249 247)
(248 250)
(251 249)
(250 252)
(253 251)
(252 254)
(255 253)
(254 256)
(257 255)
(256 258)
(259 257)
(258 260)
(261 259)
(260 262)
(263 261)
(262 264)
(265 263)
(264 266)
(267 265)
(266 268)
(269 267)
(268 270)
(271 269)
(270 272)
(273 271)
(272 274)
(275 273)
(274 276)
(277 275)
(276 278)
(279 277)
(278 280)
(281 279)
(280 282)
(283 281)
(282 284)
(285 283)
(284 286)
(287 285)
(286 288)
(289 287)
(288 290)
(291 289)
(290 292)
(293 291)
(292 294)
(295 293)
(294 296)
(297 295)
(296 298)
(299 297)
(298 300)
(301 299)
(300 302)
(303 301)
(302 304)
(305 303)
(304 306)
(307 305)
(306 308)
(309 307)
(308 310)
(311 309)
(310 312)
(313 311)
(312 314)
(315 313)
(314 316)
(317 315)
(316 318)
(319 317)
(318 0)
(0 1)
(1 319)
(0 320)
(321 1)
(320 322)
(323 321)
(322 324)
(325 323)
(324 326)
(327 325)
(326 328)
(329 327)
(328 330)
(331 329)
(330 332)
(333 331)
(332 334)
(335 333)
(334 336)
(337 335)
(336 338)
(339 337)
(338 340)
(341 339)
(340 342)
(343 341)
(342 344)
(345 343)
(344 346)
(347 345)
(346 348)
(349 347)
(348 350)
(351 349)
(350 352)
(353 351)
(352 354)
(355 353)
(354 356)
(357 355)
(356 358)
(359 357)
(358 360)
(361 359)
(360 362)
(363 361)
(362 364)
(365 363)
(364 366)
(367 365)
(366 368)
(369 367)
(368 370)
(371 369)
(370 372)
(373 371)
(372 374)
(375 373)
(374 376)
(377 375)
(376 378)
(379 377)
(378 380)
(381 379)
(380 382)
(383 381)
(382 384)
(385 383)
(384 386)
(387 385)
(386 388)
(389 387)
(388 390)
(391 389)
(390 392)
(393 391)
(392 394)
(395 393)
(394 396)
(397 395)
(396 398)
(399 397)
(398 400)
(401 399)
(400 402)
(403 401)
(402 404)
(405 403)
(404 406)
(407 405)
(406 408)
(409 407)
(408 410)
(411 409)
(410 412)
(413 411)
(412 414)
(415 413)
(414 416)
(417 415)
(416 418)
(419 417)
(418 420)
(421 419)
(420 422)
(423 421)
(422 224)
(227 423)
)

// concaveStart mixedStart nonFeatureStart
0 2 2
// internalStart flatStart openStart multipleStart
222 425 425 425
// normals

839
(
(0.16928239 0.98556759 0)
(0 0 -1)
(0.16928239 0.98556759 0)
(0 0 1)
(0.14564096 0.98933751 0)
(-0 0 -1)
(0.14564096 0.98933751 0)
(0 -0 1)
(0.13093087 0.9913915 0)
(-0 -0 -1)
(0.13093087 0.9913915 0)
(0 -0 1)
(0.12164175 0.99257407 0)
(-0 -0 -1)
(0.12164175 0.99257407 0)
(0 -0 1)
(0.11097668 0.99382301 0)
(-0 0 -1)
(0.11097668 0.99382301 0)
(0 -0 1)
(0.10218286 0.99476563 0)
(-0 -0 -1)
(0.10218286 0.99476563 0)
(0 -0 1)
(0.091223175 0.99583047 0)
(-0 -0 -1)
(0.091223175 0.99583047 0)
(0 -0 1)
(0.080676371 0.99674035 0)
(-0 -0 -1)
(0.080676371 0.99674035 0)
(0 0 1)
(0.068984371 0.99761774 0)
(-0 0 -1)
(0.068984371 0.99761774 0)
(0 -0 1)
(0.058761804 0.99827203 0)
(-0 0 -1)
(0.058761804 0.99827203 0)
(0 0 1)
(0.045868392 0.99894749 0)
(-0 0 -1)
(0.045868392 0.99894749 0)
(0 0 1)
(0.032679421 0.99946589 0)
(-0 0 -1)
(0.032679421 0.99946589 0)
(0 0 1)
(0.017358295 0.99984933 0)
(-0 0 -1)
(0.017358295 0.99984933 0)
(0 0 1)
(0.0039582985 0.99999217 0)
(-0 0 -1)
(0.0039582985 0.99999217 0)
(0 0 1)
(-0.0081540054 0.99996676 0)
(0 0 -1)
(-0.0081540054 0.99996676 0)
(-0 0 1)
(-0.017061758 0.99985444 0)
(0 0 -1)
(-0.017061758 0.99985444 0)
(-0 0 1)
(-0.029212512 0.99957322 0)
(0 0 -1)
(-0.029212512 0.99957322 0)
(-0 0 1)
(-0.04335664 0.99905966 0)
(0 0 -1)
(-0.04335664 0.99905966 0)
(-0 0 1)
(-0.058670863 0.99827738 0)
(0 0 -1)
(-0.058670863 0.99827738 0)
(-0 0 1)
(-0.074318017 0.99723459 0)
(0 0 -1)
(-0.074318017 0.99723459 0)
(-0 0 1)
(-0.092351 0.99572652 0)
(0 0 -1)
(-0.092351 0.99572652 0)
(-0 0 1)
(-0.10983015 0.99395037 0)
(0 0 -1)
(-0.10983015 0.99395037 0)
(0 0 1)
(-0.13991529 0.99016348 0)
(0 0 -1)
(-0.13991529 0.99016348 0)
(0 -0 1)
(-0.17172692 0.98514459 0)
(0 0 -1)
(-0.17172692 0.98514459 0)
(0 -0 1)
(-0.20911434 0.9778912 0)
(0 0 -1)
(-0.20911434 0.9778912 0)
(0 -0 1)
(-0.26476466 0.96431306 0)
(0 0 -1)
(-0.26476466 0.96431306 0)
(0 -0 1)
(-0.33347421 0.94275922 0)
(0 0 -1)
(-0.33347421 0.94275922 0)
(0 0 1)
(-0.41921828 0.90788547 0)
(0 0 -1)
(-0.41921828 0.90788547 0)
(0 0 1)
(-0.51520725 0.85706563 0)
(0 0 -1)
(-0.51520725 0.85706563 0)
(0 0 1)
(-0.60663409 0.79498118 0)
(0 -0 -1)
(-0.60663409 0.79498118 0)
(0 0 1)
(-0.68743859 0.72624251 0)
(0 0 -1)
(-0.68743859 0.72624251 0)
(0 0 1)
(-0.75947772 0.65053332 0)
(0 0 -1)
(-0.75947772 0.65053332 0)
(0 0 1)
(-0.82450921 0.56584853 0)
(0 0 -1)
(-0.82450921 0.56584853 0)
(-0 0 1)
(-0.88152526 0.47213685 0)
(-0.88152526 0.47213685 0)
(-0.92787326 0.37289571 0)
(0 0 -1)
(-0.92787326 0.37289571 0)
(0 0 1)
(-0.96290458 0.26984214 0)
(0 0 -1)
(-0.96290458 0.26984214 0)
(0 0 1)
(-0.98439351 0.17598129 0)
(0 0 -1)
(-0.98439351 0.17598129 0)
(0 0 1)
(-0.9857598 -0.1681595 -0)
(0 0 -1)
(-0.9857598 -0.1681595 0)
(-0.97063787 -0.24054549 -0)
(0 0 -1)
(-0.97063787 -0.24054549 0)
(0 -0 1)
(-0.94107888 -0.33818715 -0)
(0 0 -1)
(-0.94107888 -0.33818715 0)
(0 0 1)
(-0.89945467 -0.43701408 -0)
(0 0 -1)
(-0.89945467 -0.43701408 0)
(-0 0 1)
(-0.84539793 -0.534137 -0)
(0 0 -1)
(-0.84539793 -0.534137 0)
(0 0 1)
(-0.78623566 -0.61792677 -0)
(0 0 -1)
(-0.78623566 -0.61792677 0)
(0 0 1)
(-0.71599819 -0.69810214 -0)
(0 0 -1)
(-0.71599819 -0.69810214 0)
(-0 0 1)
(-0.63199905 -0.77496916 -0)
(0 0 -1)
(-0.63199905 -0.77496916 0)
(0 0 1)
(-0.54293229 -0.83977648 -0)
(0 0 -1)
(-0.54293229 -0.83977648 0)
(0 0 1)
(-0.45121095 -0.89241732 -0)
(0 0 -1)
(-0.45121095 -0.89241732 0)
(-0 0 1)
(-0.35856681 -0.93350407 -0)
(0 0 -1)
(-0.35856681 -0.93350407 0)
(0 0 1)
(-0.28549655 -0.95837974 -0)
(0 -0 -1)
(-0.28549655 -0.95837974 0)
(0 0 1)
(-0.22610217 -0.97410359 -0)
(0 -0 -1)
(-0.22610217 -0.97410359 0)
(0 0 1)
(-0.18030196 -0.98361131 -0)
(0 -0 -1)
(-0.18030196 -0.98361131 0)
(0 0 1)
(-0.14753743 -0.98905647 -0)
(0 -0 -1)
(-0.14753743 -0.98905647 0)
(0 0 1)
(-0.12456313 -0.99221168 -0)
(0 -0 -1)
(-0.12456313 -0.99221168 0)
(-0 0 1)
(-0.096547241 -0.9953284 -0)
(0 -0 -1)
(-0.096547241 -0.9953284 0)
(0 0 1)
(-0.07712694 -0.99702128 -0)
(0 -0 -1)
(-0.07712694 -0.99702128 0)
(0 0 1)
(-0.064085904 -0.99794439 -0)
(0 -0 -1)
(-0.064085904 -0.99794439 0)
(0 0 1)
(-0.046671005 -0.99891031 -0)
(0 -0 -1)
(-0.046671005 -0.99891031 0)
(0 0 1)
(-0.031577886 -0.99950129 -0)
(0 -0 -1)
(-0.031577886 -0.99950129 0)
(0 0 1)
(-0.014936635 -0.99988844 -0)
(0 -0 -1)
(-0.014936635 -0.99988844 0)
(0 0 1)
(-0.0037968481 -0.99999279 -0)
(0 -0 -1)
(-0.0037968481 -0.99999279 0)
(-0 0 1)
(0.0098753679 -0.99995124 0)
(0 -0 -1)
(0.0098753679 -0.99995124 0)
(0 0 1)
(0.024115885 -0.99970917 0)
(0 -0 -1)
(0.024115885 -0.99970917 0)
(0 0 1)
(0.0414438 -0.99914084 0)
(-0 0 -1)
(0.0414438 -0.99914084 0)
(0 0 1)
(0.061473655 -0.99810871 0)
(0 -0 -1)
(0.061473655 -0.99810871 0)
(0 0 1)
(0.086748436 -0.99623025 0)
(0 -0 -1)
(0.086748436 -0.99623025 0)
(0 0 1)
(0.11275255 -0.9936231 0)
(-0 0 -1)
(0.11275255 -0.9936231 0)
(0 0 1)
(0.12794797 -0.99178088 0)
(0 -0 -1)
(0.12794797 -0.99178088 0)
(0 0 1)
(0.14400666 -0.98957672 0)
(0 -0 -1)
(0.14400666 -0.98957672 0)
(0 0 1)
(0.15357629 -0.98813679 0)
(-0 0 -1)
(0.15357629 -0.98813679 0)
(0 0 1)
(0.15807123 -0.98742771 0)
(0 -0 -1)
(0.15807123 -0.98742771 0)
(0 0 1)
(0.15459942 -0.98797724 0)
(0 0 -1)
(0.15459942 -0.98797724 0)
(0 0 1)
(0.13682176 -0.99059568 0)
(0 0 -1)
(0.13682176 -0.99059568 0)
(0 0 1)
(0.12068843 -0.99269044 0)
(0 0 -1)
(0.12068843 -0.99269044 0)
(0 -0 1)
(0.096599901 -0.99532329 0)
(0 -0 -1)
(0.096599901 -0.99532329 0)
(0 0 1)
(0.065165927 -0.99787444 0)
(-0 0 -1)
(0.065165927 -0.99787444 0)
(0 0 1)
(0.029514136 -0.99956436 0)
(0 0 -1)
(0.029514136 -0.99956436 0)
(0 0 1)
(-0.00993357 -0.99995066 -0)
(0 0 -1)
(-0.00993357 -0.99995066 0)
(0 0 1)
(-0.05077902 -0.99870991 -0)
(0 0 -1)
(-0.05077902 -0.99870991 0)
(0 -0 1)
(-0.092815831 -0.99568329 -0)
(0 -0 -1)
(-0.092815831 -0.99568329 0)
(-0 0 1)
(-0.1350512 -0.99083862 -0)
(0 0 -1)
(-0.1350512 -0.99083862 0)
(0 0 1)
(-0.16340774 -0.98655862 -0)
(0 0 -1)
(-0.16340774 -0.98655862 0)
(0 0 1)
(-0.11696913 -0.99313555 -0)
(0 0 -1)
(-0.11696913 -0.99313555 0)
(0 -0 1)
(-0.010368513 -0.99994625 -0)
(0 0 -1)
(-0.010368513 -0.99994625 0)
(0 -0 1)
(0.090593625 -0.99588794 0)
(0 0 -1)
(0.090593625 -0.99588794 0)
(0 -0 1)
(0.19512797 -0.98077779 0)
(0 0 -1)
(0.19512797 -0.98077779 0)
(0 0 1)
(0.29958561 -0.95406942 0)
(-0 0 -1)
(0.29958561 -0.95406942 0)
(0 0 1)
(0.40043638 -0.91632456 0)
(-0 0 -1)
(0.40043638 -0.91632456 0)
(0 0 1)
(0.49755819 -0.8674306 0)
(0 0 -1)
(0.49755819 -0.8674306 0)
(0 0 1)
(0.58883573 -0.80825274 0)
(0 0 -1)
(0.58883573 -0.80825274 0)
(0 0 1)
(0.67643198 -0.73650511 0)
(-0 0 -1)
(0.67643198 -0.73650511 0)
(0 0 1)
(0.75561446 -0.65501663 0)
(0 0 -1)
(0.75561446 -0.65501663 0)
(0 -0 1)
(0.82564158 -0.56419499 0)
(0 0 -1)
(0.82564158 -0.56419499 0)
(0 -0 1)
(0.88730722 -0.46117881 0)
(0.88730722 -0.46117881 0)
(0.93448442 -0.35600404 0)
(0 0 -1)
(0.93448442 -0.35600404 0)
(0 0 1)
(0.96911874 -0.24659456 0)
(0 0 -1)
(0.96911874 -0.24659456 0)
(0 0 1)
(0.99090646 -0.13455258 0)
(0 0 -1)
(0.99090646 -0.13455258 0)
(0 0 1)
(0.99894485 -0.045925961 0)
(0 0 -1)
(0.99894485 -0.045925961 0)
(0 0 1)
(0.99911227 0.04212678 0)
(0 0 -1)
(0.99911227 0.04212678 0)
(0 0 1)
(0.98713313 0.15990052 0)
(0 -0 -1)
(0.98713313 0.15990052 0)
(0 0 1)
(0.96212813 0.27259761 0)
(0 0 -1)
(0.96212813 0.27259761 0)
(0 0 1)
(0.92516862 0.37955636 0)
(0 0 -1)
(0.92516862 0.37955636 0)
(0 0 1)
(0.87798231 0.47869308 0)
(0 -0 -1)
(0.87798231 0.47869308 0)
(0 0 1)
(0.82170285 0.56991616 0)
(0 0 -1)
(0.82170285 0.56991616 0)
(0 0 1)
(0.77583132 0.63094037 0)
(0 -0 -1)
(0.77583132 0.63094037 0)
(0 0 1)
(0.7244312 0.68934711 0)
(0 0 -1)
(0.7244312 0.68934711 0)
(0 0 1)
(0.65061889 0.75940442 0)
(0 0 -1)
(0.65061889 0.75940442 0)
(0 0 1)
(0.56508456 0.825033 0)
(0 -0 -1)
(0.56508456 0.825033 0)
(0 0 1)
(0.4698169 0.88276389 0)
(0 0 -1)
(0.4698169 0.88276389 0)
(0 0 1)
(0.36896252 0.92944427 0)
(0 0 -1)
(0.36896252 0.92944427 0)
(0 0 1)
(0.26356985 0.96464031 0)
(0 0 -1)
(0.26356985 0.96464031 0)
(0 0 1)
(0.1974717 0.98030859 0)
(0 0 -1)
(0.1974717 0.98030859 0)
(0 0 1)
(0.98028417 -0.19759286 0)
(-0 0 1)
(0.98028417 -0.19759286 0)
(0 0 -1)
(0.95679328 -0.29076903 0)
(0 0 1)
(0.95679328 -0.29076903 0)
(0 0 -1)
(0.91783524 -0.39696156 0)
(0 0 1)
(0.91783524 -0.39696156 0)
(0 0 -1)
(0.85935428 -0.5113807 0)
(0 0 1)
(0.85935428 -0.5113807 0)
(0 0 -1)
(0.79833978 -0.60220726 0)
(0 0 1)
(0.79833978 -0.60220726 0)
(0 0 -1)
(0.73008737 -0.68335381 0)
(0 0 1)
(0.73008737 -0.68335381 0)
(0 0 -1)
(0.65509612 -0.75554555 0)
(0 0 1)
(0.65509612 -0.75554555 0)
(0 0 -1)
(0.57536846 -0.81789433 0)
(0 0 1)
(0.57536846 -0.81789433 0)
(0 0 -1)
(0.50658536 -0.86218981 0)
(0 -0 1)
(0.50658536 -0.86218981 0)
(0 0 -1)
(0.44112989 -0.89744327 0)
(0 0 1)
(0.44112989 -0.89744327 0)
(0 0 -1)
(0.38136922 -0.9244228 0)
(0 0 1)
(0.38136922 -0.9244228 0)
(0 0 -1)
(0.32772667 -0.94477258 0)
(0 -0 1)
(0.32772667 -0.94477258 0)
(0 0 -1)
(0.28484413 -0.95857385 0)
(0 0 1)
(0.28484413 -0.95857385 0)
(0 -0 -1)
(0.24849581 -0.96863297 0)
(0 0 1)
(0.24849581 -0.96863297 0)
(0 -0 -1)
(0.21514209 -0.97658276 0)
(0 0 1)
(0.21514209 -0.97658276 0)
(0 0 -1)
(0.18868805 -0.98203708 0)
(0 0 1)
(0.18868805 -0.98203708 0)
(0 0 -1)
(0.16745932 -0.98587899 0)
(0 0 1)
(0.16745932 -0.98587899 0)
(0 -0 -1)
(0.14603165 -0.98927992 0)
(0 0 1)
(0.14603165 -0.98927992 0)
(0 -0 -1)
(0.1284624 -0.99171438 0)
(0 0 1)
(0.1284624 -0.99171438 0)
(0 0 -1)
(0.11111294 -0.99380778 0)
(0 -0 1)
(0.11111294 -0.99380778 0)
(0 0 -1)
(0.099508886 -0.99503667 0)
(0 -0 1)
(0.099508886 -0.99503667 0)
(0 0 -1)
(0.085743915 -0.99631721 0)
(0 -0 1)
(0.085743915 -0.99631721 0)
(0 0 -1)
(0.076413796 -0.99707619 0)
(0 -0 1)
(0.076413796 -0.99707619 0)
(0 0 -1)
(0.064625816 -0.99790957 0)
(0 -0 1)
(0.064625816 -0.99790957 0)
(0 0 -1)
(0.057492785 -0.99834592 0)
(0 -0 1)
(0.057492785 -0.99834592 0)
(0 0 -1)
(0.047311518 -0.99888018 0)
(0 -0 1)
(0.047311518 -0.99888018 0)
(0 0 -1)
(0.037858435 -0.99928311 0)
(0 -0 1)
(0.037858435 -0.99928311 0)
(0 0 -1)
(0.029397997 -0.99956779 0)
(0 -0 1)
(0.029397997 -0.99956779 0)
(0 -0 -1)
(0.019993847 -0.9998001 0)
(0 -0 1)
(0.019993847 -0.9998001 0)
(0 0 -1)
(0.010230617 -0.99994767 0)
(0 0 1)
(0.010230617 -0.99994767 0)
(0 0 -1)
(0.0058313326 -0.999983 0)
(0 0 1)
(0.0058313326 -0.999983 0)
(0 0 -1)
(0.00029020868 -0.99999996 0)
(-0 0 1)
(0.00029020868 -0.99999996 0)
(0 0 -1)
(-0.0094172349 -0.99995566 -0)
(0 0 1)
(-0.0094172349 -0.99995566 0)
(-0 -0 -1)
(-0.013060422 -0.99991471 -0)
(0 0 1)
(-0.013060422 -0.99991471 0)
(-0 -0 -1)
(-0.019868481 -0.9998026 -0)
(0 0 1)
(-0.019868481 -0.9998026 0)
(-0 0 -1)
(-0.029539018 -0.99956363 -0)
(0 0 1)
(-0.029539018 -0.99956363 0)
(-0 0 -1)
(-0.033987759 -0.99942225 -0)
(0 0 1)
(-0.033987759 -0.99942225 0)
(-0 0 -1)
(-0.043794207 -0.99904057 -0)
(0 0 1)
(-0.043794207 -0.99904057 0)
(-0 0 -1)
(-0.05398064 -0.99854198 -0)
(0 0 1)
(-0.05398064 -0.99854198 0)
(0 0 -1)
(-0.059814873 -0.99820949 -0)
(0 0 1)
(-0.059814873 -0.99820949 0)
(-0 -0 -1)
(-0.069492412 -0.99758248 -0)
(0 0 1)
(-0.069492412 -0.99758248 0)
(-0 -0 -1)
(-0.078841899 -0.99688713 -0)
(0 0 1)
(-0.078841899 -0.99688713 0)
(-0 0 -1)
(-0.083007248 -0.99654894 -0)
(0 0 1)
(-0.083007248 -0.99654894 0)
(-0 -0 -1)
(-0.089474852 -0.99598908 -0)
(0 0 1)
(-0.089474852 -0.99598908 0)
(-0 -0 -1)
(-0.099105194 -0.99507696 -0)
(0 0 1)
(-0.099105194 -0.99507696 0)
(-0 -0 -1)