FoamFile
{
    version     2.0;
    format      ascii;
    class       surfaceScalarField;
    object      phi;
}

dimensions      [0 3 -1 0 0 0 0];

internalField   uniform 0;

boundaryField
{
    inlet
    {
        type            calculated;
        value           $internalField;
    }

    outlet
    {
        type            calculated;
        value           $internalField;
    }

    domainWalls
    {
        type            calculated;
        value           uniform 0;
    }

    NASAsc2-0410
    {
        type            calculated;
        value           uniform 0;
    }

}
