/*--------------------------------*- C++ -*----------------------------------*\
| =========                 |                                                 |
| \\      /  F ield         | OpenFOAM: The Open Source CFD Toolbox           |
|  \\    /   O peration     | Version:  2306                                  |
|   \\  /    A nd           | Website:  www.openfoam.com                      |
|    \\/     M anipulation  |                                                 |
\*---------------------------------------------------------------------------*/
FoamFile
{
    version     2.0;
    format      ascii;
    arch        "LSB;label=32;scalar=64";
    class       extendedFeatureEdgeMesh;
    location    "constant/extendedFeatureEdgeMesh";
    object      NASAsc2-0410.extendedFeatureEdgeMesh;
}
// * * * * * * * * * * * * * * * * * * * * * * * * * * * * * * * * * * * * * //

// points

2393
(
(0.010549817 0.21062802 2.9500117)
(0.9934808 0.048881821 2.9500117)
(0.99347651 0.048883386 2.9500117)
(0.9933691 0.048922628 1.1718073e-05)
(0.99345362 0.048891701 1.1718073e-05)
(0.99346042 0.048889235 1.1718073e-05)
(0.008890125 0.222626 2.9500117)
(0.0088589042 0.22255273 2.9500117)
(0.012002544 0.20890459 2.9500117)
(0.0086774398 0.22215147 2.9500117)
(0.0086694313 0.22213326 2.9500117)
(0.0087718908 0.2223569 2.9500117)
(0.79429948 0.077739999 2.9500117)
(0.80000961 0.11043164 2.9500117)
(0.77777922 0.078126073 2.9500117)
(0.76537526 0.1202646 2.9500117)
(0.77667886 0.07814832 2.9500117)
(0.019494832 0.23449749 2.9500117)
(0.019246139 0.23436809 2.9500117)
(0.019087909 0.23428503 2.9500117)
(0.018787511 0.23412582 2.9500117)
(0.01863499 0.23404428 2.9500117)
(0.01827147 0.23384824 2.9500117)
(0.016637105 0.23295 2.9500117)
(0.062900856 0.18075922 2.9500117)
(0.066910133 0.17931786 2.9500117)
(0.063954726 0.24166483 2.9500117)
(0.89180493 0.071798168 2.9500117)
(0.88794631 0.084118769 2.9500117)
(0.88329887 0.072726309 2.9500117)
(0.88658965 0.084538154 2.9500117)
(0.99113476 0.049762055 2.9500117)
(0.99111629 0.049768955 2.9500117)
(0.99111021 0.049734615 2.9500117)
(0.032985106 0.23888153 2.9500117)
(0.03362811 0.239005 2.9500117)
(0.034011707 0.239077 2.9500117)
(0.0086118449 0.21929088 2.9500117)
(0.0086139683 0.21921813 2.9500117)
(0.0086030699 0.21984372 2.9500117)
(0.0085999789 0.22025189 2.9500117)
(0.0086809928 0.22215948 2.9500117)
(0.0087142223 0.22223252 2.9500117)
(0.0086923148 0.22218466 2.9500117)
(0.73438126 0.07872925 2.9500117)
(0.75994873 0.12177923 2.9500117)
(0.75636828 0.12276105 2.9500117)
(0.80221701 0.077488571 2.9500117)
(0.81205982 0.077167466 2.9500117)
(0.82951725 0.10174574 2.9500117)
(0.81701809 0.076984033 2.9500117)
(0.82100642 0.076819107 2.9500117)
(0.99088281 0.049856126 2.9500117)
(0.99086231 0.049863778 2.9500117)
(0.99115312 0.049755201 2.9500117)
(0.0202167 0.23486419 2.9500117)
(0.0200218 0.23476657 2.9500117)
(0.0088290088 0.22248405 2.9500117)
(0.0088001778 0.2224192 2.9500117)
(0.0085689053 0.22111198 2.9500117)
(0.0085672736 0.22113377 2.9500117)
(0.0085959984 0.22050613 2.9500117)
(0.0085963132 0.22049132 2.9500117)
(0.0085986583 0.22035739 2.9500117)
(0.011622332 0.20932645 2.9500117)
(0.99084163 0.049871497 2.9500117)
(0.99082083 0.049879275 2.9500117)
(0.99079978 0.049887128 2.9500117)
(0.048083235 0.24091819 2.9500117)
(0.046759956 0.24080423 2.9500117)
(0.04667316 0.24079637 2.9500117)
(0.04548702 0.24068436 2.9500117)
(0.031923022 0.23866919 2.9500117)
(0.031335421 0.2385467 2.9500117)
(0.031206116 0.23851922 2.9500117)
(0.019868135 0.23468886 2.9500117)
(0.019652721 0.23457888 2.9500117)
(0.0089646019 0.22280696 2.9500117)
(0.0089581925 0.22279105 2.9500117)
(0.0085894587 0.22073263 2.9500117)
(0.0085902791 0.22070986 2.9500117)
(0.0085929213 0.22062767 2.9500117)
(0.23624071 0.22806215 2.9500117)
(0.222058 0.22985995 2.9500117)
(0.20983529 0.1399948 2.9500117)
(0.22106314 0.22998056 2.9500117)
(0.19839759 0.14257106 2.9500117)
(0.21441571 0.23075607 2.9500117)
(0.19749007 0.14277914 2.9500117)
(0.19201866 0.14405704 2.9500117)
(0.83480799 0.076223135 2.9500117)
(0.83509111 0.076210476 2.9500117)
(0.84926689 0.095926553 2.9500117)
(0.909926 0.069397174 2.9500117)
(0.91092211 0.069245182 2.9500117)
(0.90828741 0.077686504 2.9500117)
(0.99289382 0.049102552 2.9500117)
(0.99288899 0.049104363 2.9500117)
(0.99292666 0.049084567 2.9500117)
(0.99288416 0.049106173 2.9500117)
(0.99287933 0.049107991 2.9500117)
(0.99328446 0.048956156 2.9500117)
(0.99328125 0.048954837 2.9500117)
(0.99328405 0.048953809 2.9500117)
(0.045299955 0.24066588 2.9500117)
(0.044260167 0.24055894 2.9500117)
(0.04398445 0.24052937 2.9500117)
(0.02085636 0.23517674 2.9500117)
(0.020685112 0.23509428 2.9500117)
(0.0089276433 0.22271611 2.9500117)
(0.0089230426 0.22270495 2.9500117)
(0.0085437577 0.22142725 2.9500117)
(0.0085441368 0.22142115 2.9500117)
(0.0085454369 0.22140136 2.9500117)
(0.0085485652 0.22135866 2.9500117)
(0.0085528474 0.22130612 2.9500117)
(0.0085613495 0.22120729 2.9500117)
(0.0085634505 0.22118211 2.9500117)
(0.0086793555 0.21800613 2.9500117)
(0.0086897342 0.21786934 2.9500117)
(0.011173867 0.20983022 2.9500117)
(0.011202039 0.20979767 2.9500117)
(0.0088057993 0.21660191 2.9500117)
(0.0086057829 0.21957941 2.9500117)
(0.0086077498 0.21946383 2.9500117)
(0.0086092455 0.21939369 2.9500117)
(0.71961826 0.13275862 2.9500117)
(0.68584329 0.14162119 2.9500117)
(0.67889756 0.079477571 2.9500117)
(0.67660517 0.14395836 2.9500117)
(0.6652537 0.079664104 2.9500117)
(0.65542305 0.14929108 2.9500117)
(0.65370649 0.079818532 2.9500117)
(0.64283395 0.15232642 2.9500117)
(0.64007169 0.080128826 2.9500117)
(0.85027587 0.075383291 2.9500117)
(0.85639149 0.074985497 2.9500117)
(0.8499105 0.095733047 2.9500117)
(0.85779005 0.074888989 2.9500117)
(0.86544842 0.074327908 2.9500117)
(0.87535042 0.073519006 2.9500117)
(0.87569898 0.073487051 2.9500117)
(0.87888485 0.073182404 2.9500117)
(0.90679502 0.069861829 2.9500117)
(0.97698462 0.054930292 2.9500117)
(0.97377181 0.056073025 2.9500117)
(0.9749583 0.054957323 2.9500117)
(0.98639095 0.051353157 2.9500117)
(0.98696393 0.05116161 2.9500117)
(0.98511904 0.051988386 2.9500117)
(0.98847157 0.050651014 2.9500117)
(0.98985785 0.050238453 2.9500117)
(0.99094331 0.049833544 2.9500117)
(0.99092335 0.049841009 2.9500117)
(0.99090314 0.049848534 2.9500117)
(0.9912073 0.049734965 2.9500117)
(0.99118936 0.049741663 2.9500117)
(0.9911713 0.049748406 2.9500117)
(0.9928745 0.049109809 2.9500117)
(0.99286962 0.049111634 2.9500117)
(0.99286479 0.049113467 2.9500117)
(0.99308497 0.049030878 2.9500117)
(0.99307632 0.049034104 2.9500117)
(0.99293149 0.049082816 2.9500117)
(0.99306768 0.049037345 2.9500117)
(0.99305898 0.049040608 2.9500117)
(0.99328989 0.048954129 2.9500117)
(0.032763831 0.2388382 2.9500117)
(0.032079492 0.23870119 2.9500117)
(0.020988766 0.23523985 2.9500117)
(0.020545024 0.23502615 2.9500117)
(0.020363985 0.23493724 2.9500117)
(0.016209824 0.23271811 2.9500117)
(0.015804555 0.23250246 2.9500117)
(0.015420829 0.23229909 2.9500117)
(0.015388915 0.23228195 2.9500117)
(0.015254103 0.23220894 2.9500117)
(0.015226329 0.23219374 2.9500117)
(0.010605916 0.22665912 2.9500117)
(0.010495726 0.22643256 2.9500117)
(0.0091023128 0.22316104 2.9500117)
(0.009053085 0.223032 2.9500117)
(0.0090390146 0.22299558 2.9500117)
(0.0085460627 0.22139236 2.9500117)
(0.0085480958 0.22136477 2.9500117)
(0.0085723745 0.22106309 2.9500117)
(0.0085738273 0.22104141 2.9500117)
(0.0085770944 0.22098961 2.9500117)
(0.10394423 0.16732991 2.9500117)
(0.11139738 0.16511102 2.9500117)
(0.11381985 0.24039458 2.9500117)
(0.065974012 0.24169937 2.9500117)
(0.51662236 0.087659769 2.9500117)
(0.54161417 0.17531395 2.9500117)
(0.51175588 0.088167623 2.9500117)
(0.51610523 0.18064933 2.9500117)
(0.84034753 0.075953044 2.9500117)
(0.84098822 0.075919047 2.9500117)
(0.84849232 0.075492144 2.9500117)
(0.94225323 0.063406102 2.9500117)
(0.94739014 0.065085441 2.9500117)
(0.93954116 0.063994035 2.9500117)
(0.93349349 0.069644444 2.9500117)
(0.93825269 0.064267695 2.9500117)
(0.97709465 0.054308899 2.9500117)
(0.97888273 0.053758651 2.9500117)
(0.98214406 0.053073242 2.9500117)
(0.98240232 0.052652285 2.9500117)
(0.98481584 0.0518727 2.9500117)
(0.99018478 0.0500599 2.9500117)
(0.99018729 0.050115682 2.9500117)
(0.990161 0.05012548 2.9500117)
(0.99077857 0.049895041 2.9500117)
(0.99075723 0.04990302 2.9500117)
(0.99305022 0.049043894 2.9500117)
(0.99304581 0.04904554 2.9500117)
(0.9930414 0.049047194 2.9500117)
(0.99294591 0.049082994 2.9500117)
(0.99294126 0.049084753 2.9500117)
(0.043076109 0.2404283 2.9500117)
(0.042722642 0.24038744 2.9500117)
(0.041931018 0.24029267 2.9500117)
(0.0090058399 0.2229106 2.9500117)
(0.0089963963 0.22288667 2.9500117)
(0.0085415449 0.22146779 2.9500117)
(0.0085424352 0.22145022 2.9500117)
(0.0085426718 0.22144589 2.9500117)
(0.008578443 0.22096685 2.9500117)
(0.0085815247 0.22091106 2.9500117)
(0.0085827326 0.22088754 2.9500117)
(0.0085856514 0.22082606 2.9500117)
(0.0085866842 0.22080241 2.9500117)
(0.0086467518 0.21849532 2.9500117)
(0.0086527225 0.21839657 2.9500117)
(0.46757975 0.093669116 2.9500117)
(0.48242429 0.18737118 2.9500117)
(0.45741868 0.0950047 2.9500117)
(0.47276512 0.18922615 2.9500117)
(0.45255727 0.095674373 2.9500117)
(0.46862862 0.19000804 2.9500117)
(0.261471 0.12885557 2.9500117)
(0.27602527 0.12586939 2.9500117)
(0.27538595 0.22270957 2.9500117)
(0.30295718 0.21861577 2.9500117)
(0.28339601 0.12443033 2.9500117)
(0.30529636 0.12017661 2.9500117)
(0.33216941 0.21399069 2.9500117)
(0.088849925 0.17201424 2.9500117)
(0.096224658 0.16969264 2.9500117)
(0.096950009 0.24125858 2.9500117)
(0.050357856 0.18551627 2.9500117)
(0.052287322 0.18475379 2.9500117)
(0.74920803 0.12470529 2.9500117)
(0.72555 0.13117673 2.9500117)
(0.72195125 0.13214315 2.9500117)
(0.56919128 0.083104186 2.9500117)
(0.57433963 0.082809366 2.9500117)
(0.57692319 0.16770798 2.9500117)
(0.57511413 0.082767919 2.9500117)
(0.58730251 0.1654231 2.9500117)
(0.59247601 0.08185102 2.9500117)
(0.61299652 0.15950064 2.9500117)
(0.60246557 0.081419528 2.9500117)
(0.6156708 0.15887883 2.9500117)
(0.61438572 0.08091493 2.9500117)
(0.61888844 0.15811607 2.9500117)
(0.6148721 0.080897592 2.9500117)
(0.63330805 0.080293469 2.9500117)
(0.53000474 0.086284794 2.9500117)
(0.5386492 0.085446842 2.9500117)
(0.55834579 0.17180166 2.9500117)
(0.54555684 0.084835142 2.9500117)
(0.55337811 0.084204495 2.9500117)
(0.56291652 0.083511859 2.9500117)
(0.50551176 0.088866532 2.9500117)
(0.50698185 0.088695943 2.9500117)
(0.5103882 0.08831495 2.9500117)
(0.86843401 0.0740989 2.9500117)
(0.87157881 0.073846951 2.9500117)
(0.87222087 0.073793396 2.9500117)
(0.8954621 0.071371831 2.9500117)
(0.89847732 0.070998587 2.9500117)
(0.8991428 0.070913352 2.9500117)
(0.90218771 0.07051003 2.9500117)
(0.93141073 0.065660805 2.9500117)
(0.93407309 0.06513042 2.9500117)
(0.93555802 0.06482821 2.9500117)
(0.99290818 0.049097165 2.9500117)
(0.99290341 0.049098961 2.9500117)
(0.99289864 0.049100757 2.9500117)
(0.99328685 0.048952788 2.9500117)
(0.99328959 0.048951782 2.9500117)
(0.99329519 0.048952147 2.9500117)
(0.041509889 0.24024042 2.9500117)
(0.040821612 0.24015222 2.9500117)
(0.040341843 0.24008864 2.9500117)
(0.015144366 0.23214853 2.9500117)
(0.015114051 0.23213166 2.9500117)
(0.015048479 0.23209485 2.9500117)
(0.010846957 0.22714216 2.9500117)
(0.010765692 0.22698134 2.9500117)
(0.010277959 0.22597577 2.9500117)
(0.010144053 0.22568917 2.9500117)
(0.0086614359 0.21826108 2.9500117)
(0.0086692106 0.21814707 2.9500117)
(0.0087533304 0.21713226 2.9500117)
(0.0087697851 0.21695961 2.9500117)
(0.0087936008 0.21671999 2.9500117)
(0.011364286 0.2096132 2.9500117)
(0.0087155495 0.2175532 2.9500117)
(0.011290554 0.20969647 2.9500117)
(0.011251656 0.20974076 2.9500117)
(0.0087012546 0.21772455 2.9500117)
(0.011412865 0.20955878 2.9500117)
(0.40210667 0.10322212 2.9500117)
(0.41842219 0.199274 2.9500117)
(0.37775469 0.10720113 2.9500117)
(0.39261642 0.20389451 2.9500117)
(0.37597007 0.10749564 2.9500117)
(0.38512969 0.20517191 2.9500117)
(0.1855935 0.14561102 2.9500117)
(0.1940628 0.23314655 2.9500117)
(0.15836723 0.15233785 2.9500117)
(0.1741634 0.23529536 2.9500117)
(0.15265693 0.15379407 2.9500117)
(0.15937856 0.23674372 2.9500117)
(0.14658085 0.15539646 2.9500117)
(0.15534718 0.23713624 2.9500117)
(0.13296025 0.15904564 2.9500117)
(0.15123986 0.23752347 2.9500117)
(0.14949875 0.23768073 2.9500117)
(0.14591779 0.23798966 2.9500117)
(0.14403664 0.2381447 2.9500117)
(0.12689355 0.16069365 2.9500117)
(0.13584773 0.23878318 2.9500117)
(0.12049509 0.1624871 2.9500117)
(0.10913915 0.24068546 2.9500117)
(0.10831974 0.24073392 2.9500117)
(0.10504872 0.24091539 2.9500117)
(0.48085904 0.091899887 2.9500117)
(0.48745009 0.091062859 2.9500117)
(0.49297145 0.090382144 2.9500117)
(0.9025957 0.070454404 2.9500117)
(0.9058066 0.070004463 2.9500117)
(0.9231301 0.067215912 2.9500117)
(0.92482388 0.072465897 2.9500117)
(0.92240989 0.067344286 2.9500117)
(0.91909993 0.067920044 2.9500117)
(0.92645407 0.066609092 2.9500117)
(0.92724735 0.066460803 2.9500117)
(0.93046236 0.065846205 2.9500117)
(0.99100238 0.049811497 2.9500117)
(0.99098283 0.049818791 2.9500117)
(0.99096316 0.049826138 2.9500117)
(0.99073565 0.049911067 2.9500117)
(0.99071389 0.049919181 2.9500117)
(0.99069202 0.049927361 2.9500117)
(0.99126029 0.049715169 2.9500117)
(0.99124277 0.049721718 2.9500117)
(0.99122512 0.049728319 2.9500117)
(0.99311036 0.049021371 2.9500117)
(0.99310195 0.049024507 2.9500117)
(0.99309349 0.049027681 2.9500117)
(0.021437494 0.23544945 2.9500117)
(0.021277661 0.23537555 2.9500117)
(0.0211532 0.23531744 2.9500117)
(0.015017199 0.23207712 2.9500117)
(0.014962577 0.23204592 2.9500117)
(0.014931576 0.23202804 2.9500117)
(0.010731184 0.22691241 2.9500117)
(0.010638404 0.22672525 2.9500117)
(0.01012201 0.22564149 2.9500117)
(0.010019572 0.2254179 2.9500117)
(0.009994152 0.22536182 2.9500117)
(0.0086670723 0.22212785 2.9500117)
(0.0086596562 0.22211064 2.9500117)
(0.0086580124 0.22210678 2.9500117)
(0.0086511495 0.22209054 2.9500117)
(0.0085413922 0.22147106 2.9500117)
(0.0086499425 0.22208765 2.9500117)
(0.0085406797 0.22148761 2.9500117)
(0.0086251637 0.21891665 2.9500117)
(0.0086288033 0.21883558 2.9500117)
(0.011126759 0.20988506 2.9500117)
(0.0088255946 0.21641684 2.9500117)
(0.0088387616 0.21629807 2.9500117)
(0.40689307 0.10246591 2.9500117)
(0.40824136 0.10225876 2.9500117)
(0.43836793 0.19571039 2.9500117)
(0.43191358 0.098639622 2.9500117)
(0.44317156 0.19482942 2.9500117)
(0.43678987 0.097917184 2.9500117)
(0.44885489 0.096199095 2.9500117)
(0.27332184 0.22300749 2.9500117)
(0.26733342 0.22384411 2.9500117)
(0.24492671 0.13225657 2.9500117)
(0.24539623 0.22686768 2.9500117)
(0.23038301 0.13538471 2.9500117)
(0.2422009 0.22729315 2.9500117)
(0.22797599 0.13590896 2.9500117)
(0.21378383 0.13910384 2.9500117)
(0.3141253 0.11854792 2.9500117)
(0.34482637 0.11289722 2.9500117)
(0.34306774 0.2122587 2.9500117)
(0.34662655 0.11257818 2.9500117)
(0.3714304 0.10826535 2.9500117)
(0.12457082 0.23965938 2.9500117)
(0.12265689 0.23980069 2.9500117)
(0.11902601 0.24005312 2.9500117)
(0.07399632 0.1768655 2.9500117)
(0.078962043 0.17521617 2.9500117)
(0.077870376 0.24173667 2.9500117)
(0.94357145 0.063114539 2.9500117)
(0.94620085 0.062521696 2.9500117)
(0.94737965 0.062251054 2.9500117)
(0.96427089 0.058051892 2.9500117)
(0.96674508 0.058529682 2.9500117)
(0.96319717 0.058342084 2.9500117)
(0.95887744 0.061201148 2.9500117)
(0.96560949 0.05768393 2.9500117)
(0.96652049 0.057429701 2.9500117)
(0.96883458 0.057805985 2.9500117)
(0.96793509 0.057029016 2.9500117)
(0.99013454 0.050135344 2.9500117)
(0.99010783 0.050145298 2.9500117)
(0.99008095 0.050155327 2.9500117)
(0.9928599 0.0491153 2.9500117)
(0.99285501 0.04911714 2.9500117)
(0.99239516 0.049276061 2.9500117)
(0.99285007 0.049118988 2.9500117)
(0.99295986 0.049077757 2.9500117)
(0.99295527 0.0490795 2.9500117)
(0.99295062 0.049081244 2.9500117)
(0.99329233 0.048950784 2.9500117)
(0.99329501 0.0489498 2.9500117)
(0.99330038 0.04895021 2.9500117)
(0.039745137 0.24000713 2.9500117)
(0.039214123 0.23993227 2.9500117)
(0.038699161 0.23985755 2.9500117)
(0.021974333 0.23569106 2.9500117)
(0.021847308 0.23563482 2.9500117)
(0.011058286 0.22754997 2.9500117)
(0.01099012 0.22742012 2.9500117)
(0.0086204112 0.21903266 2.9500117)
(0.008634788 0.2187129 2.9500117)
(0.0086394409 0.21862459 2.9500117)
(0.0087282704 0.21740696 2.9500117)
(0.070594274 0.17802639 2.9500117)
(0.069304958 0.24173629 2.9500117)
(0.067668542 0.24172106 2.9500117)
(0.91415626 0.068737559 2.9500117)
(0.91506481 0.068591081 2.9500117)
(0.91827112 0.068060614 2.9500117)
(0.95635873 0.060098812 2.9500117)
(0.95833975 0.059603378 2.9500117)
(0.9598161 0.059227884 2.9500117)
(0.99292243 0.049091816 2.9500117)
(0.99291766 0.049093597 2.9500117)
(0.99291295 0.049095377 2.9500117)
(0.021710811 0.23557374 2.9500117)
(0.021553889 0.23550269 2.9500117)
(0.01095548 0.2273535 2.9500117)
(0.010881986 0.22721082 2.9500117)
(0.010467642 0.2263743 2.9500117)
(0.010316762 0.22605796 2.9500117)
(0.0099097453 0.22517383 2.9500117)
(0.0098832734 0.22511426 2.9500117)
(0.0098112188 0.2249504 2.9500117)
(0.008856358 0.21614458 2.9500117)
(0.011060987 0.20996264 2.9500117)
(0.01110544 0.20991006 2.9500117)
(0.10463871 0.24093646 2.9500117)
(0.10191584 0.2410651 2.9500117)
(0.098315291 0.24120949 2.9500117)
(0.083452806 0.24165934 2.9500117)
(0.081332147 0.24169725 2.9500117)
(0.080067158 0.24171481 2.9500117)
(0.076514259 0.24174523 2.9500117)
(0.073237896 0.24175242 2.9500117)
(0.071736678 0.2417495 2.9500117)
(0.049879808 0.18570733 2.9500117)
(0.06328167 0.24165103 2.9500117)
(0.061215021 0.24160081 2.9500117)
(0.013985087 0.20665365 2.9500117)
(0.014211496 0.20640326 2.9500117)
(0.052584756 0.24123406 2.9500117)
(0.95020217 0.061591141 2.9500117)
(0.9514367 0.061297491 2.9500117)
(0.95438462 0.060584739 2.9500117)
(0.96098334 0.058926508 2.9500117)
(0.96212226 0.05862809 2.9500117)
(0.96896398 0.056733333 2.9500117)
(0.97043967 0.056303538 2.9500117)
(0.9718135 0.055898257 2.9500117)
(0.99106002 0.04978998 2.9500117)
(0.99104095 0.049797095 2.9500117)
(0.99102169 0.04980427 2.9500117)
(0.99066991 0.049935609 2.9500117)
(0.99064761 0.049943931 2.9500117)
(0.99062514 0.049952321 2.9500117)
(0.99131215 0.049695805 2.9500117)
(0.99129498 0.049702212 2.9500117)
(0.99127769 0.049708672 2.9500117)
(0.99293655 0.049086511 2.9500117)
(0.99293184 0.049088277 2.9500117)
(0.99292713 0.049090043 2.9500117)
(0.99277455 0.049147382 2.9500117)
(0.99276936 0.049149334 2.9500117)
(0.99313498 0.049012139 2.9500117)
(0.99312687 0.049015179 2.9500117)
(0.99311864 0.049018256 2.9500117)
(0.99329764 0.048948824 2.9500117)
(0.99330026 0.048947863 2.9500117)
(0.99330544 0.04894831 2.9500117)
(0.035641219 0.23936918 2.9500117)
(0.035029601 0.2392621 2.9500117)
(0.034608014 0.2391865 2.9500117)
(0.014884297 0.23200053 2.9500117)
(0.014854263 0.23198292 2.9500117)
(0.014812071 0.23195794 2.9500117)
(0.011744677 0.22876261 2.9500117)
(0.011695147 0.22868113 2.9500117)
(0.011599446 0.2285209 2.9500117)
(0.011542327 0.22842354 2.9500117)
(0.01151504 0.2283766 2.9500117)
(0.01146705 0.22829337 2.9500117)
(0.0097850235 0.2248902 2.9500117)
(0.009721769 0.22474331 2.9500117)
(0.0096965991 0.22468422 2.9500117)
(0.008617592 0.21910878 2.9500117)
(0.0088701472 0.2160283 2.9500117)
(0.0088863783 0.21589571 2.9500117)
(0.0089005418 0.21578366 2.9500117)
(0.089899667 0.24148878 2.9500117)
(0.087205775 0.24156862 2.9500117)
(0.08502917 0.24162471 2.9500117)
(0.060766958 0.24158826 2.9500117)
(0.058821119 0.2415264 2.9500117)
(0.058525514 0.2415159 2.9500117)
(0.013851331 0.2068027 2.9500117)
(0.02250943 0.19934838 2.9500117)
(0.02285089 0.19912452 2.9500117)
(0.05266409 0.18460645 2.9500117)
(0.055032555 0.18369091 2.9500117)
(0.055640224 0.18345881 2.9500117)
(0.99005383 0.050165437 2.9500117)
(0.99002647 0.050175622 2.9500117)
(0.98999894 0.050185889 2.9500117)
(0.99284512 0.049120843 2.9500117)
(0.99284017 0.049122699 2.9500117)
(0.99283522 0.049124561 2.9500117)
(0.99297374 0.049072564 2.9500117)
(0.99296916 0.049074292 2.9500117)
(0.99296451 0.049076021 2.9500117)
(0.038123123 0.23977147 2.9500117)
(0.037681051 0.23970357 2.9500117)
(0.037065789 0.2396064 2.9500117)
(0.024645325 0.23674086 2.9500117)
(0.024547702 0.23670658 2.9500117)
(0.011673857 0.2286458 2.9500117)
(0.011621217 0.22855766 2.9500117)
(0.0085400278 0.22150581 2.9500117)
(0.0085405782 0.2214902 2.9500117)
(0.0086360117 0.22205351 2.9500117)
(0.0090915998 0.21453267 2.9500117)
(0.0091083404 0.21444112 2.9500117)
(0.011002179 0.21003309 2.9500117)
(0.040133104 0.18984425 2.9500117)
(0.040836982 0.18952748 2.9500117)
(0.042930659 0.18860421 2.9500117)
(0.044172894 0.18806832 2.9500117)
(0.044598646 0.18788657 2.9500117)
(0.048326552 0.18633468 2.9500117)
(0.04780921 0.186546 2.9500117)
(0.058508992 0.18237703 2.9500117)
(0.062463582 0.18091843 2.9500117)
(0.9927218 0.049167216 2.9500117)
(0.99271643 0.04916925 2.9500117)
(0.99271095 0.049171291 2.9500117)
(0.99330288 0.04894691 2.9500117)
(0.99330544 0.048945963 2.9500117)
(0.99331039 0.048946455 2.9500117)
(0.036665622 0.23954149 2.9500117)
(0.036039431 0.23943721 2.9500117)
(0.030652435 0.23839931 2.9500117)
(0.030553712 0.23837754 2.9500117)
(0.029977502 0.23824793 2.9500117)
(0.026245344 0.23726429 2.9500117)
(0.026281046 0.23727518 2.9500117)
(0.026611349 0.23737445 2.9500117)
(0.014783384 0.23194081 2.9500117)
(0.0147448 0.23191755 2.9500117)
(0.014717669 0.23190105 2.9500117)
(0.0111888 0.22779398 2.9500117)
(0.011156471 0.22773412 2.9500117)
(0.011091961 0.22761351 2.9500117)
(0.0096398341 0.22454953 2.9500117)
(0.0096161105 0.22449261 2.9500117)
(0.0095642647 0.22436684 2.9500117)
(0.010948723 0.21009816 2.9500117)
(0.010987901 0.21005037 2.9500117)
(0.0091359811 0.21429506 2.9500117)
(0.039530165 0.19011843 2.9500117)
(0.041459575 0.18925008 2.9500117)
(0.042303503 0.18887798 2.9500117)
(0.99109769 0.049775906 2.9500117)
(0.99107891 0.049782917 2.9500117)
(0.99060249 0.049960777 2.9500117)
(0.99057961 0.049969308 2.9500117)
(0.9905566 0.049977906 2.9500117)
(0.99276417 0.049151286 2.9500117)
(0.99275893 0.049153246 2.9500117)
(0.99275368 0.049155213 2.9500117)
(0.9926433 0.049196765 2.9500117)
(0.9926374 0.049198978 2.9500117)
(0.9931587 0.049003251 2.9500117)
(0.99315089 0.049006179 2.9500117)
(0.99314296 0.049009137 2.9500117)
(0.0086435955 0.22207227 2.9500117)
(0.0086426558 0.22206998 2.9500117)
(0.0086367894 0.22205546 2.9500117)
(0.0085395556 0.2215227 2.9500117)
(0.0085399598 0.221508 2.9500117)
(0.0086299079 0.22203803 2.9500117)
(0.056691773 0.24144366 2.9500117)
(0.056441616 0.24143283 2.9500117)
(0.054712679 0.24135122 2.9500117)
(0.049462825 0.24102607 2.9500117)
(0.012344397 0.20851831 2.9500117)
(0.050942015 0.24113041 2.9500117)
(0.012989423 0.20777993 2.9500117)
(0.013562671 0.20712702 2.9500117)
(0.021737715 0.19986597 2.9500117)
(0.022010408 0.1996811 2.9500117)
(0.045946274 0.18731752 2.9500117)
(0.046423785 0.18711811 2.9500117)
(0.98997116 0.050196238 2.9500117)
(0.98994315 0.050206669 2.9500117)
(0.98991495 0.050217181 2.9500117)
(0.99283028 0.049126431 2.9500117)
(0.99282527 0.049128301 2.9500117)
(0.99282026 0.049130179 2.9500117)
(0.99267775 0.049183793 2.9500117)
(0.99267209 0.049185917 2.9500117)
(0.99266642 0.049188063 2.9500117)
(0.9926607 0.049190216 2.9500117)
(0.99263149 0.049201213 2.9500117)
(0.99262547 0.049203463 2.9500117)
(0.99261945 0.049205728 2.9500117)
(0.99298751 0.049067408 2.9500117)
(0.99298292 0.049069121 2.9500117)
(0.99297833 0.049070843 2.9500117)
(0.99330795 0.048945032 2.9500117)
(0.99331051 0.048944116 2.9500117)
(0.99331522 0.048944645 2.9500117)
(0.025938867 0.23716941 2.9500117)
(0.025888888 0.23715371 2.9500117)
(0.025604403 0.23706302 2.9500117)
(0.024341192 0.23663312 2.9500117)
(0.024231832 0.23659371 2.9500117)
(0.024044458 0.23652531 2.9500117)
(0.011342047 0.22807257 2.9500117)
(0.011281571 0.22796366 2.9500117)
(0.01125085 0.22790782 2.9500117)
(0.0095422175 0.22431275 2.9500117)
(0.0094942059 0.22419366 2.9500117)
(0.0094739292 0.22414279 2.9500117)
(0.0089159636 0.2156653 2.9500117)
(0.011043961 0.20998292 2.9500117)
(0.0091193877 0.21438199 2.9500117)
(0.05444615 0.24133757 2.9500117)
(0.05261746 0.24123602 2.9500117)
(0.022108827 0.19961491 2.9500117)
(0.022410175 0.19941401 2.9500117)
(0.99136287 0.049676858 2.9500117)
(0.99134606 0.049683124 2.9500117)
(0.99132919 0.049689442 2.9500117)
(0.99270552 0.049173348 2.9500117)
(0.99270004 0.049175411 2.9500117)
(0.9926945 0.04917749 2.9500117)
(0.99265492 0.049192384 2.9500117)
(0.99264914 0.049194567 2.9500117)
(0.99261338 0.049208015 2.9500117)
(0.9926073 0.049210325 2.9500117)
(0.9926011 0.049212649 2.9500117)
(0.029457705 0.23812695 2.9500117)
(0.028981293 0.23801225 2.9500117)
(0.028539527 0.23790233 2.9500117)
(0.025541397 0.23704265 2.9500117)
(0.025277259 0.23695605 2.9500117)
(0.025202345 0.23693113 2.9500117)
(0.024957269 0.2368485 2.9500117)
(0.024871258 0.23681912 2.9500117)
(0.023924431 0.23648092 2.9500117)
(0.023754742 0.23641738 2.9500117)
(0.023625053 0.23636818 2.9500117)
(0.014681681 0.23187897 2.9500117)
(0.014656216 0.23186323 2.9500117)
(0.014622104 0.23184192 2.9500117)
(0.011430589 0.22822957 2.9500117)
(0.011370976 0.22812419 2.9500117)
(0.0094282636 0.22402686 2.9500117)
(0.0094104903 0.22398123 2.9500117)
(0.0093661929 0.22386611 2.9500117)
(0.0085392362 0.22153853 2.9500117)
(0.008624265 0.2220234 2.9500117)
(0.008930319 0.21555838 2.9500117)
(0.0089453198 0.21544984 2.9500117)
(0.0089597227 0.21534857 2.9500117)
(0.014312817 0.20629203 2.9500117)
(0.014530194 0.20605522 2.9500117)
(0.014611145 0.20596771 2.9500117)
(0.98988652 0.050227776 2.9500117)
(0.98920429 0.050399803 2.9500117)
(0.99053335 0.049986579 2.9500117)
(0.99050993 0.049995318 2.9500117)
(0.99048632 0.050004132 2.9500117)
(0.99239022 0.049291953 2.9500117)
(0.99238169 0.049295165 2.9500117)
(0.99237305 0.049298406 2.9500117)
(0.99274844 0.049157195 2.9500117)
(0.99274319 0.049159177 2.9500117)
(0.99273789 0.049161173 2.9500117)
(0.99268895 0.049179576 2.9500117)
(0.99268335 0.049181677 2.9500117)
(0.99331295 0.048943207 2.9500117)
(0.9933154 0.048942305 2.9500117)
(0.99331993 0.048942871 2.9500117)
(0.0093447939 0.22380982 2.9500117)
(0.0092540849 0.22356772 2.9500117)
(0.037693441 0.19097109 2.9500117)
(0.038325768 0.19067448 2.9500117)
(0.038886528 0.19041416 2.9500117)
(0.99281526 0.049132071 2.9500117)
(0.99281025 0.049133956 2.9500117)
(0.99280518 0.049135856 2.9500117)
(0.99273252 0.049163178 2.9500117)
(0.99272716 0.049165197 2.9500117)
(0.99316639 0.049000375 2.9500117)
(0.99327844 0.04895588 2.9500117)
(0.99317402 0.048997529 2.9500117)
(0.9930011 0.049062289 2.9500117)
(0.99299657 0.049063988 2.9500117)
(0.99299204 0.049065694 2.9500117)
(0.023471698 0.23630929 2.9500117)
(0.02333325 0.23625547 2.9500117)
(0.023195002 0.23620105 2.9500117)
(0.011831982 0.22890374 2.9500117)
(0.011812498 0.22887254 2.9500117)
(0.01176517 0.22879604 2.9500117)
(0.0089745903 0.21524687 2.9500117)
(0.0089889225 0.21515146 2.9500117)
(0.0090038814 0.21505445 2.9500117)
(0.010811174 0.21027094 2.9500117)
(0.010843199 0.21022995 2.9500117)
(0.0091464259 0.21424147 2.9500117)
(0.010888169 0.2101732 2.9500117)
(0.010899543 0.21015899 2.9500117)
(0.010936218 0.21011354 2.9500117)
(0.99259484 0.049214996 2.9500117)
(0.99258858 0.049217366 2.9500117)
(0.9925822 0.049219757 2.9500117)
(0.99319607 0.048989274 2.9500117)
(0.9931888 0.048991986 2.9500117)
(0.99318147 0.048994735 2.9500117)
(0.028126249 0.23779607 2.9500117)
(0.027736139 0.23769253 2.9500117)
(0.027358374 0.23758903 2.9500117)
(0.023048606 0.23614272 2.9500117)
(0.02292436 0.23609263 2.9500117)
(0.022770742 0.23602995 2.9500117)
(0.0090180393 0.21496499 2.9500117)
(0.0090332692 0.21487114 2.9500117)
(0.0090471627 0.2147876 2.9500117)
(0.010853878 0.21021639 2.9500117)
(0.014819125 0.20574459 2.9500117)
(0.014888453 0.20567079 2.9500117)
(0.015086799 0.20546128 2.9500117)
(0.03544797 0.19205201 2.9500117)
(0.035845619 0.19185732 2.9500117)
(0.99046248 0.050013021 2.9500117)
(0.99043846 0.050021976 2.9500117)
(0.99041426 0.050031006 2.9500117)
(0.99236435 0.049301684 2.9500117)
(0.99235553 0.049304992 2.9500117)
(0.99234658 0.049308337 2.9500117)
(0.99331784 0.048941419 2.9500117)
(0.99332023 0.048940539 2.9500117)
(0.99332458 0.048941143 2.9500117)
(0.026990307 0.23748499 2.9500117)
(0.026631368 0.23738037 2.9500117)
(0.011940867 0.22907522 2.9500117)
(0.011896104 0.22900534 2.9500117)
(0.011877776 0.22897649 2.9500117)
(0.0086190253 0.22200948 2.9500117)
(0.0090628099 0.21469577 2.9500117)
(0.0090795467 0.21460006 2.9500117)
(0.015149572 0.20539549 2.9500117)
(0.015338527 0.20519897 2.9500117)
(0.015397333 0.2051383 2.9500117)
(0.036548421 0.19151676 2.9500117)
(0.037054766 0.19127406 2.9500117)
(0.99280012 0.049137764 2.9500117)
(0.99279505 0.049139671 2.9500117)
(0.99278992 0.049141593 2.9500117)
(0.99301463 0.049057215 2.9500117)
(0.99301016 0.049058907 2.9500117)
(0.99300563 0.049060598 2.9500117)
(0.022659516 0.23598403 2.9500117)
(0.022499314 0.23591709 2.9500117)
(0.022398127 0.23587433 2.9500117)
(0.014598355 0.23182698 2.9500117)
(0.014565595 0.23180616 2.9500117)
(0.014543575 0.23179206 2.9500117)
(0.033367053 0.19309507 2.9500117)
(0.033585232 0.19298373 2.9500117)
(0.9927848 0.049143516 2.9500117)
(0.99277967 0.049145445 2.9500117)
(0.99257582 0.049222171 2.9500117)
(0.99256933 0.049224608 2.9500117)
(0.99256277 0.049227074 2.9500117)
(0.99321705 0.048981421 2.9500117)
(0.99321014 0.048983991 2.9500117)
(0.99320316 0.048986614 2.9500117)
(0.99332261 0.048939675 2.9500117)
(0.99332494 0.048938818 2.9500117)
(0.99332911 0.048939444 2.9500117)
(0.022234006 0.23580416 2.9500117)
(0.022128386 0.23575845 2.9500117)
(0.012061585 0.2292593 2.9500117)
(0.012024201 0.22920297 2.9500117)
(0.0086141387 0.22199619 2.9500117)
(0.0085390517 0.22155344 2.9500117)
(0.010800884 0.2102842 2.9500117)
(0.0091627836 0.21415925 2.9500117)