/*--------------------------------*- C++ -*----------------------------------*\
| =========                 |                                                 |
| \\      /  F ield         | OpenFOAM: The Open Source CFD Toolbox           |
|  \\    /   O peration     | Version:  2306                                  |
|   \\  /    A nd           | Website:  www.openfoam.com                      |
|    \\/     M anipulation  |                                                 |
\*---------------------------------------------------------------------------*/
FoamFile
{
    version     2.0;
    format      binary;
    arch        "LSB;label=32;scalar=64";
    class       polyBoundaryMesh;
    location    "constant/polyMesh";
    object      boundary;
}
// * * * * * * * * * * * * * * * * * * * * * * * * * * * * * * * * * * * * * //

9
(
    frontAndBack
    {
        type            patch;
        nFaces          288;
        startFace       786652;
    }
    inlet
    {
        type            patch;
        nFaces          312;
        startFace       786940;
    }
    outlet
    {
        type            patch;
        nFaces          0;
        startFace       787252;
    }
    lowerWall
    {
        type            wall;
        inGroups        1(wall);
        nFaces          312;
        startFace       787252;
    }
    upperWall
    {
        type            patch;
        nFaces          0;
        startFace       787564;
    }
    NASAsc2-0410
    {
        type            wall;
        inGroups        2(NASAsc2-0410Group wall);
        nFaces          2256;
        startFace       787564;
    }
    procBoundary0to1
    {
        type            processor;
        inGroups        1(processor);
        nFaces          6288;
        startFace       789820;
        matchTolerance  0.0001;
        transform       unknown;
        myProcNo        0;
        neighbProcNo    1;
    }
    procBoundary0to2
    {
        type            processor;
        inGroups        1(processor);
        nFaces          13824;
        startFace       796108;
        matchTolerance  0.0001;
        transform       unknown;
        myProcNo        0;
        neighbProcNo    2;
    }
    procBoundary0to3
    {
        type            processor;
        inGroups        1(processor);
        nFaces          1;
        startFace       809932;
        matchTolerance  0.0001;
        transform       unknown;
        myProcNo        0;
        neighbProcNo    3;
    }
)

// ************************************************************************* //
