/*--------------------------------*- C++ -*----------------------------------*\
| =========                 |                                                 |
| \\      /  F ield         | OpenFOAM: The Open Source CFD Toolbox           |
|  \\    /   O peration     | Version:  2306                                  |
|   \\  /    A nd           | Website:  www.openfoam.com                      |
|    \\/     M anipulation  |                                                 |
\*---------------------------------------------------------------------------*/
FoamFile
{
    version     2.0;
    format      binary;
    arch        "LSB;label=32;scalar=64";
    class       polyBoundaryMesh;
    location    "constant/polyMesh";
    object      boundary;
}
// * * * * * * * * * * * * * * * * * * * * * * * * * * * * * * * * * * * * * //

9
(
    frontAndBack
    {
        type            patch;
        nFaces          480;
        startFace       786407;
    }
    inlet
    {
        type            patch;
        nFaces          0;
        startFace       786887;
    }
    outlet
    {
        type            patch;
        nFaces          312;
        startFace       786887;
    }
    lowerWall
    {
        type            wall;
        inGroups        1(wall);
        nFaces          520;
        startFace       787199;
    }
    upperWall
    {
        type            patch;
        nFaces          0;
        startFace       787719;
    }
    NASAsc2-0410
    {
        type            wall;
        inGroups        2(NASAsc2-0410Group wall);
        nFaces          0;
        startFace       787719;
    }
    procBoundary1to0
    {
        type            processor;
        inGroups        1(processor);
        nFaces          6288;
        startFace       787719;
        matchTolerance  0.0001;
        transform       unknown;
        myProcNo        1;
        neighbProcNo    0;
    }
    procBoundary1to2
    {
        type            processor;
        inGroups        1(processor);
        nFaces          177;
        startFace       794007;
        matchTolerance  0.0001;
        transform       unknown;
        myProcNo        1;
        neighbProcNo    2;
    }
    procBoundary1to3
    {
        type            processor;
        inGroups        1(processor);
        nFaces          11362;
        startFace       794184;
        matchTolerance  0.0001;
        transform       unknown;
        myProcNo        1;
        neighbProcNo    3;
    }
)

// ************************************************************************* //
