/*--------------------------------*- C++ -*----------------------------------*\
| =========                 |                                                 |
| \\      /  F ield         | OpenFOAM: The Open Source CFD Toolbox           |
|  \\    /   O peration     | Version:  2306                                  |
|   \\  /    A nd           | Website:  www.openfoam.com                      |
|    \\/     M anipulation  |                                                 |
\*---------------------------------------------------------------------------*/
FoamFile
{
    version     2.0;
    format      binary;
    arch        "LSB;label=32;scalar=64";
    class       polyBoundaryMesh;
    location    "constant/polyMesh";
    object      boundary;
}
// * * * * * * * * * * * * * * * * * * * * * * * * * * * * * * * * * * * * * //

9
(
    frontAndBack
    {
        type            patch;
        nFaces          264;
        startFace       783290;
    }
    inlet
    {
        type            patch;
        nFaces          286;
        startFace       783554;
    }
    outlet
    {
        type            patch;
        nFaces          0;
        startFace       783840;
    }
    lowerWall
    {
        type            wall;
        inGroups        1(wall);
        nFaces          0;
        startFace       783840;
    }
    upperWall
    {
        type            patch;
        nFaces          312;
        startFace       783840;
    }
    NASAsc2-0410
    {
        type            wall;
        inGroups        2(NASAsc2-0410Group wall);
        nFaces          9200;
        startFace       784152;
    }
    procBoundary2to0
    {
        type            processor;
        inGroups        1(processor);
        nFaces          13824;
        startFace       793352;
        matchTolerance  0.0001;
        transform       unknown;
        myProcNo        2;
        neighbProcNo    0;
    }
    procBoundary2to1
    {
        type            processor;
        inGroups        1(processor);
        nFaces          177;
        startFace       807176;
        matchTolerance  0.0001;
        transform       unknown;
        myProcNo        2;
        neighbProcNo    1;
    }
    procBoundary2to3
    {
        type            processor;
        inGroups        1(processor);
        nFaces          6718;
        startFace       807353;
        matchTolerance  0.0001;
        transform       unknown;
        myProcNo        2;
        neighbProcNo    3;
    }
)

// ************************************************************************* //
